Program Version,EnergyPlus, Linux, VERSION 6.0.0.023,IDD_Version 6.0.0.023
   ** Warning ** Weather file location will be used rather than entered Location object.
   **   ~~~   ** ..Location object=UNTITLED
   **   ~~~   ** ..Weather File Location=ATHENS - GRC IWEC Data WMO#=167160
   **   ~~~   ** ..due to location differences, Latitude difference=[2.37] degrees, Longitude difference=[0.42] degrees.
   **   ~~~   ** ..Time Zone difference=[0.0] hour(s), Elevation difference=[89.73] percent, [131.00] meters.
   ** Warning ** Distance between two vertices < .01, possibly coincident. for Surface=FIRSTFLOOR:ZONE4_FLOOR_0_0_0, in Zone=FIRSTFLOOR:ZONE4
   **   ~~~   ** Vertex [3]=(3.85,2.42,3.35)
   **   ~~~   ** Vertex [1]=(3.86,2.43,3.35)
   ** Warning ** Distance between two vertices < .01, possibly coincident. for Surface=GROUNDFLOOR:ZONE2_CEILING_1_0_10027, in Zone=GROUNDFLOOR:ZONE2
   **   ~~~   ** Vertex [3]=(3.86,2.43,3.35)
   **   ~~~   ** Vertex [1]=(3.85,2.42,3.35)
   ** Warning ** Distance between two vertices < .01, possibly coincident. for Surface=BLOCK1:OFFICE4_GROUNDFLOOR_0_0_0, in Zone=BLOCK1:OFFICE4
   **   ~~~   ** Vertex [7]=(7.41,-3.55E-002,0.00)
   **   ~~~   ** Vertex [1]=(7.41,-3.56E-002,0.00)
   ** Warning ** Distance between two vertices < .01, possibly coincident. for Surface=BLOCK1:OFFICE4_CEILING_1_0_0, in Zone=BLOCK1:OFFICE4
   **   ~~~   ** Vertex [13]=(7.41,-3.56E-002,3.35)
   **   ~~~   ** Vertex [1]=(7.41,-3.55E-002,3.35)
   ** Warning ** Distance between two vertices < .01, possibly coincident. for Surface=BLOCK2:OFFICE11_FLOOR_0_0_10000, in Zone=BLOCK2:OFFICE11
   **   ~~~   ** Vertex [7]=(7.41,-3.55E-002,3.35)
   **   ~~~   ** Vertex [1]=(7.41,-3.56E-002,3.35)
   ** Warning ** GetAirflowNetworkInput: Triangular subsurface is found for an opening = BLOCK2:OFFICE12_WALL_5_0_0_0_0_0_WIN in BLOCK2:OFFICE12_WALL_5_0_0_0_0_0_WIN
   **   ~~~   ** A rectangular subsurface should be used.
   ** Warning ** GetAirflowNetworkInput: Triangular subsurface is found for an opening = BLOCK2:OFFICE12_WALL_5_0_0_1_0_0_WIN in BLOCK2:OFFICE12_WALL_5_0_0_1_0_0_WIN
   **   ~~~   ** A rectangular subsurface should be used.
   ** Warning ** GetAirflowNetworkInput: Triangular subsurface is found for an opening = FIRSTFLOOR:ZONE5_ROOF_1_0_0_1_0_0_WIN in FIRSTFLOOR:ZONE5_ROOF_1_0_0_1_0_0_WIN
   **   ~~~   ** A rectangular subsurface should be used.
   ** Warning ** GetAirflowNetworkInput: Triangular subsurface is found for an opening = FIRSTFLOOR:ZONE5_ROOF_1_0_0_2_0_0_WIN in FIRSTFLOOR:ZONE5_ROOF_1_0_0_2_0_0_WIN
   **   ~~~   ** A rectangular subsurface should be used.
   ** Warning ** GetAirflowNetworkInput: Triangular subsurface is found for an opening = FIRSTFLOOR:ZONE5_ROOF_1_0_0_3_0_0_WIN in FIRSTFLOOR:ZONE5_ROOF_1_0_0_3_0_0_WIN
   **   ~~~   ** A rectangular subsurface should be used.
   ** Warning ** GetAirflowNetworkInput: Triangular subsurface is found for an opening = FIRSTFLOOR:ZONE5_ROOF_1_0_0_4_0_0_WIN in FIRSTFLOOR:ZONE5_ROOF_1_0_0_4_0_0_WIN
   **   ~~~   ** A rectangular subsurface should be used.
   ** Warning ** GetAirflowNetworkInput: Triangular subsurface is found for an opening = FIRSTFLOOR:ZONE5_ROOF_1_0_0_5_0_0_WIN in FIRSTFLOOR:ZONE5_ROOF_1_0_0_5_0_0_WIN
   **   ~~~   ** A rectangular subsurface should be used.
   ** Warning ** GetAirflowNetworkInput: Triangular subsurface is found for an opening = FIRSTFLOOR:ZONE5_ROOF_1_0_0_6_0_0_WIN in FIRSTFLOOR:ZONE5_ROOF_1_0_0_6_0_0_WIN
   **   ~~~   ** A rectangular subsurface should be used.
   ** Warning ** GetAirflowNetworkInput: Triangular subsurface is found for an opening = FIRSTFLOOR:ZONE5_ROOF_1_0_0_7_0_0_WIN in FIRSTFLOOR:ZONE5_ROOF_1_0_0_7_0_0_WIN
   **   ~~~   ** A rectangular subsurface should be used.
   ** Warning ** GetAirflowNetworkInput: Triangular subsurface is found for an opening = FIRSTFLOOR:ZONE5_ROOF_1_0_0_8_0_0_WIN in FIRSTFLOOR:ZONE5_ROOF_1_0_0_8_0_0_WIN
   **   ~~~   ** A rectangular subsurface should be used.
   ** Warning ** GetAirflowNetworkInput: Triangular subsurface is found for an opening = FIRSTFLOOR:ZONE5_ROOF_1_0_0_9_0_0_WIN in FIRSTFLOOR:ZONE5_ROOF_1_0_0_9_0_0_WIN
   **   ~~~   ** A rectangular subsurface should be used.
   ** Warning ** GetAirflowNetworkInput: Triangular subsurface is found for an opening = FIRSTFLOOR:ZONE5_ROOF_1_0_0_10_0_0_WIN in FIRSTFLOOR:ZONE5_ROOF_1_0_0_10_0_0_WIN
   **   ~~~   ** A rectangular subsurface should be used.
   ** Warning ** GetAirflowNetworkInput: Triangular subsurface is found for an opening = FIRSTFLOOR:ZONE5_ROOF_1_0_0_11_0_0_WIN in FIRSTFLOOR:ZONE5_ROOF_1_0_0_11_0_0_WIN
   **   ~~~   ** A rectangular subsurface should be used.
   ** Warning ** GetAirflowNetworkInput: Triangular subsurface is found for an opening = FIRSTFLOOR:ZONE5_ROOF_1_0_0_12_0_0_WIN in FIRSTFLOOR:ZONE5_ROOF_1_0_0_12_0_0_WIN
   **   ~~~   ** A rectangular subsurface should be used.
   ** Warning ** GetAirflowNetworkInput: Triangular subsurface is found for an opening = FIRSTFLOOR:ZONE4_ROOF_1_0_0_0_0_0_WIN in FIRSTFLOOR:ZONE4_ROOF_1_0_0_0_0_0_WIN
   **   ~~~   ** A rectangular subsurface should be used.
   ** Warning ** GetAirflowNetworkInput: Triangular subsurface is found for an opening = FIRSTFLOOR:ZONE4_ROOF_1_0_0_1_0_0_WIN in FIRSTFLOOR:ZONE4_ROOF_1_0_0_1_0_0_WIN
   **   ~~~   ** A rectangular subsurface should be used.
   ** Warning ** GetAirflowNetworkInput: Triangular subsurface is found for an opening = FIRSTFLOOR:ZONE4_ROOF_1_0_0_2_0_0_WIN in FIRSTFLOOR:ZONE4_ROOF_1_0_0_2_0_0_WIN
   **   ~~~   ** A rectangular subsurface should be used.
   ** Warning ** GetAirflowNetworkInput: Triangular subsurface is found for an opening = FIRSTFLOOR:ZONE4_ROOF_1_0_0_3_0_0_WIN in FIRSTFLOOR:ZONE4_ROOF_1_0_0_3_0_0_WIN
   **   ~~~   ** A rectangular subsurface should be used.
   ** Warning ** GetAirflowNetworkInput: Triangular subsurface is found for an opening = FIRSTFLOOR:ZONE4_ROOF_1_0_0_4_0_0_WIN in FIRSTFLOOR:ZONE4_ROOF_1_0_0_4_0_0_WIN
   **   ~~~   ** A rectangular subsurface should be used.
   ** Warning ** GetAirflowNetworkInput: Triangular subsurface is found for an opening = FIRSTFLOOR:ZONE4_ROOF_1_0_0_5_0_0_WIN in FIRSTFLOOR:ZONE4_ROOF_1_0_0_5_0_0_WIN
   **   ~~~   ** A rectangular subsurface should be used.
   ** Warning ** GetAirflowNetworkInput: Triangular subsurface is found for an opening = FIRSTFLOOR:ZONE4_ROOF_1_0_0_6_0_0_WIN in FIRSTFLOOR:ZONE4_ROOF_1_0_0_6_0_0_WIN
   **   ~~~   ** A rectangular subsurface should be used.
   ** Warning ** GetAirflowNetworkInput: Triangular subsurface is found for an opening = FIRSTFLOOR:ZONE4_ROOF_1_0_0_7_0_0_WIN in FIRSTFLOOR:ZONE4_ROOF_1_0_0_7_0_0_WIN
   **   ~~~   ** A rectangular subsurface should be used.
   ** Warning ** GetAirflowNetworkInput: Triangular subsurface is found for an opening = FIRSTFLOOR:ZONE4_ROOF_1_0_0_8_0_0_WIN in FIRSTFLOOR:ZONE4_ROOF_1_0_0_8_0_0_WIN
   **   ~~~   ** A rectangular subsurface should be used.
   ** Warning ** GetAirflowNetworkInput: Triangular subsurface is found for an opening = FIRSTFLOOR:ZONE4_ROOF_1_0_0_9_0_0_WIN in FIRSTFLOOR:ZONE4_ROOF_1_0_0_9_0_0_WIN
   **   ~~~   ** A rectangular subsurface should be used.
   ** Warning ** GetAirflowNetworkInput: Triangular subsurface is found for an opening = FIRSTFLOOR:OFFICE8_WALL_3_0_0_0_0_0_WIN in FIRSTFLOOR:OFFICE8_WALL_3_0_0_0_0_0_WIN
   **   ~~~   ** A rectangular subsurface should be used.
   ** Warning ** GetAirflowNetworkInput: Triangular subsurface is found for an opening = FIRSTFLOOR:OFFICE8_WALL_3_0_0_1_0_0_WIN in FIRSTFLOOR:OFFICE8_WALL_3_0_0_1_0_0_WIN
   **   ~~~   ** A rectangular subsurface should be used.
   ** Warning ** An AirflowNetwork:Multizone:Surface object has an air-flow opening corresponding to
   **   ~~~   ** window or door = FIRSTFLOOR:ZONE5_ROOF_1_0_0_1_0_0_WIN, which is within
   **   ~~~   ** 10 deg of being horizontal. Airflows through large horizontal openings are poorly
   **   ~~~   ** modeled in the AirflowNetwork model resulting in only one-way airflow.
   ** Warning ** An AirflowNetwork:Multizone:Surface object has an air-flow opening corresponding to
   **   ~~~   ** window or door = FIRSTFLOOR:ZONE5_ROOF_1_0_0_2_0_0_WIN, which is within
   **   ~~~   ** 10 deg of being horizontal. Airflows through large horizontal openings are poorly
   **   ~~~   ** modeled in the AirflowNetwork model resulting in only one-way airflow.
   ** Warning ** An AirflowNetwork:Multizone:Surface object has an air-flow opening corresponding to
   **   ~~~   ** window or door = FIRSTFLOOR:ZONE5_ROOF_1_0_0_3_0_0_WIN, which is within
   **   ~~~   ** 10 deg of being horizontal. Airflows through large horizontal openings are poorly
   **   ~~~   ** modeled in the AirflowNetwork model resulting in only one-way airflow.
   ** Warning ** An AirflowNetwork:Multizone:Surface object has an air-flow opening corresponding to
   **   ~~~   ** window or door = FIRSTFLOOR:ZONE5_ROOF_1_0_0_4_0_0_WIN, which is within
   **   ~~~   ** 10 deg of being horizontal. Airflows through large horizontal openings are poorly
   **   ~~~   ** modeled in the AirflowNetwork model resulting in only one-way airflow.
   ** Warning ** An AirflowNetwork:Multizone:Surface object has an air-flow opening corresponding to
   **   ~~~   ** window or door = FIRSTFLOOR:ZONE5_ROOF_1_0_0_5_0_0_WIN, which is within
   **   ~~~   ** 10 deg of being horizontal. Airflows through large horizontal openings are poorly
   **   ~~~   ** modeled in the AirflowNetwork model resulting in only one-way airflow.
   ** Warning ** An AirflowNetwork:Multizone:Surface object has an air-flow opening corresponding to
   **   ~~~   ** window or door = FIRSTFLOOR:ZONE5_ROOF_1_0_0_6_0_0_WIN, which is within
   **   ~~~   ** 10 deg of being horizontal. Airflows through large horizontal openings are poorly
   **   ~~~   ** modeled in the AirflowNetwork model resulting in only one-way airflow.
   ** Warning ** An AirflowNetwork:Multizone:Surface object has an air-flow opening corresponding to
   **   ~~~   ** window or door = FIRSTFLOOR:ZONE5_ROOF_1_0_0_7_0_0_WIN, which is within
   **   ~~~   ** 10 deg of being horizontal. Airflows through large horizontal openings are poorly
   **   ~~~   ** modeled in the AirflowNetwork model resulting in only one-way airflow.
   ** Warning ** An AirflowNetwork:Multizone:Surface object has an air-flow opening corresponding to
   **   ~~~   ** window or door = FIRSTFLOOR:ZONE5_ROOF_1_0_0_8_0_0_WIN, which is within
   **   ~~~   ** 10 deg of being horizontal. Airflows through large horizontal openings are poorly
   **   ~~~   ** modeled in the AirflowNetwork model resulting in only one-way airflow.
   ** Warning ** An AirflowNetwork:Multizone:Surface object has an air-flow opening corresponding to
   **   ~~~   ** window or door = FIRSTFLOOR:ZONE5_ROOF_1_0_0_9_0_0_WIN, which is within
   **   ~~~   ** 10 deg of being horizontal. Airflows through large horizontal openings are poorly
   **   ~~~   ** modeled in the AirflowNetwork model resulting in only one-way airflow.
   ** Warning ** An AirflowNetwork:Multizone:Surface object has an air-flow opening corresponding to
   **   ~~~   ** window or door = FIRSTFLOOR:ZONE5_ROOF_1_0_0_10_0_0_WIN, which is within
   **   ~~~   ** 10 deg of being horizontal. Airflows through large horizontal openings are poorly
   **   ~~~   ** modeled in the AirflowNetwork model resulting in only one-way airflow.
   ** Warning ** An AirflowNetwork:Multizone:Surface object has an air-flow opening corresponding to
   **   ~~~   ** window or door = FIRSTFLOOR:ZONE5_ROOF_1_0_0_11_0_0_WIN, which is within
   **   ~~~   ** 10 deg of being horizontal. Airflows through large horizontal openings are poorly
   **   ~~~   ** modeled in the AirflowNetwork model resulting in only one-way airflow.
   ** Warning ** An AirflowNetwork:Multizone:Surface object has an air-flow opening corresponding to
   **   ~~~   ** window or door = FIRSTFLOOR:ZONE5_ROOF_1_0_0_12_0_0_WIN, which is within
   **   ~~~   ** 10 deg of being horizontal. Airflows through large horizontal openings are poorly
   **   ~~~   ** modeled in the AirflowNetwork model resulting in only one-way airflow.
   ** Warning ** An AirflowNetwork:Multizone:Surface object has an air-flow opening corresponding to
   **   ~~~   ** window or door = FIRSTFLOOR:ZONE4_ROOF_1_0_0_0_0_0_WIN, which is within
   **   ~~~   ** 10 deg of being horizontal. Airflows through large horizontal openings are poorly
   **   ~~~   ** modeled in the AirflowNetwork model resulting in only one-way airflow.
   ** Warning ** An AirflowNetwork:Multizone:Surface object has an air-flow opening corresponding to
   **   ~~~   ** window or door = FIRSTFLOOR:ZONE4_ROOF_1_0_0_1_0_0_WIN, which is within
   **   ~~~   ** 10 deg of being horizontal. Airflows through large horizontal openings are poorly
   **   ~~~   ** modeled in the AirflowNetwork model resulting in only one-way airflow.
   ** Warning ** An AirflowNetwork:Multizone:Surface object has an air-flow opening corresponding to
   **   ~~~   ** window or door = FIRSTFLOOR:ZONE4_ROOF_1_0_0_2_0_0_WIN, which is within
   **   ~~~   ** 10 deg of being horizontal. Airflows through large horizontal openings are poorly
   **   ~~~   ** modeled in the AirflowNetwork model resulting in only one-way airflow.
   ** Warning ** An AirflowNetwork:Multizone:Surface object has an air-flow opening corresponding to
   **   ~~~   ** window or door = FIRSTFLOOR:ZONE4_ROOF_1_0_0_3_0_0_WIN, which is within
   **   ~~~   ** 10 deg of being horizontal. Airflows through large horizontal openings are poorly
   **   ~~~   ** modeled in the AirflowNetwork model resulting in only one-way airflow.
   ** Warning ** An AirflowNetwork:Multizone:Surface object has an air-flow opening corresponding to
   **   ~~~   ** window or door = FIRSTFLOOR:ZONE4_ROOF_1_0_0_4_0_0_WIN, which is within
   **   ~~~   ** 10 deg of being horizontal. Airflows through large horizontal openings are poorly
   **   ~~~   ** modeled in the AirflowNetwork model resulting in only one-way airflow.
   ** Warning ** An AirflowNetwork:Multizone:Surface object has an air-flow opening corresponding to
   **   ~~~   ** window or door = FIRSTFLOOR:ZONE4_ROOF_1_0_0_5_0_0_WIN, which is within
   **   ~~~   ** 10 deg of being horizontal. Airflows through large horizontal openings are poorly
   **   ~~~   ** modeled in the AirflowNetwork model resulting in only one-way airflow.
   ** Warning ** An AirflowNetwork:Multizone:Surface object has an air-flow opening corresponding to
   **   ~~~   ** window or door = FIRSTFLOOR:ZONE4_ROOF_1_0_0_6_0_0_WIN, which is within
   **   ~~~   ** 10 deg of being horizontal. Airflows through large horizontal openings are poorly
   **   ~~~   ** modeled in the AirflowNetwork model resulting in only one-way airflow.
   ** Warning ** An AirflowNetwork:Multizone:Surface object has an air-flow opening corresponding to
   **   ~~~   ** window or door = FIRSTFLOOR:ZONE4_ROOF_1_0_0_7_0_0_WIN, which is within
   **   ~~~   ** 10 deg of being horizontal. Airflows through large horizontal openings are poorly
   **   ~~~   ** modeled in the AirflowNetwork model resulting in only one-way airflow.
   ** Warning ** An AirflowNetwork:Multizone:Surface object has an air-flow opening corresponding to
   **   ~~~   ** window or door = FIRSTFLOOR:ZONE4_ROOF_1_0_0_8_0_0_WIN, which is within
   **   ~~~   ** 10 deg of being horizontal. Airflows through large horizontal openings are poorly
   **   ~~~   ** modeled in the AirflowNetwork model resulting in only one-way airflow.
   ** Warning ** An AirflowNetwork:Multizone:Surface object has an air-flow opening corresponding to
   **   ~~~   ** window or door = FIRSTFLOOR:ZONE4_ROOF_1_0_0_9_0_0_WIN, which is within
   **   ~~~   ** 10 deg of being horizontal. Airflows through large horizontal openings are poorly
   **   ~~~   ** modeled in the AirflowNetwork model resulting in only one-way airflow.
   ** Warning ** DXFOut: Could not triangulate surface="UNDERGROUNDFLOOR:ZONE1_CEILING_1_0_10010", type="Roof", check surface vertex order(entry)
   *************  surface=UNDERGROUNDFLOOR:ZONE1_CEILING_1_0_10010 class=Roof
   *************  side= 1 (  15.7,   6.9,   0.0)
   *************  side= 2 (  15.7,   6.8,   0.0)
   *************  side= 3 (  15.9,   6.7,   0.0)
   *************  side= 4 (  18.4,   7.3,   0.0)
   *************  side= 5 (  19.7,   9.7,   0.0)
   *************  side= 6 (  15.5,  12.1,   0.0)
   *************  side= 7 (  14.1,   9.8,   0.0)
   *************  side= 8 (  15.2,   9.2,   0.0)
   *************  side= 9 (  15.6,   8.7,   0.0)
   *************  side=10 (  15.9,   8.2,   0.0)
   *************  side=11 (  16.0,   7.6,   0.0)
   *************  number of triangles found=           6
   *************  r angle= 1 vert=10 deg= 205.1
   *************  r angle= 2 vert=11 deg= 194.7
   ************* Testing Individual Branch Integrity
   ************* All Branches passed integrity testing
   ************* Testing Individual Supply Air Path Integrity
   ************* All Supply Air Paths passed integrity testing
   ************* Testing Individual Return Air Path Integrity
   ************* All Return Air Paths passed integrity testing
   ************* No node connection errors were found.
   ************* Beginning Simulation
   ************* There are 1 unused objects in input.
   ************* Use Output:Diagnostics,DisplayUnusedObjects; to see them.
   ************* There are 29 unused schedules in input.
   ************* There are 5 unused week schedules in input.
   ************* There are 7 unused day schedules in input.
   ************* Use Output:Diagnostics,DisplayUnusedSchedules; to see them.
   ************* EnergyPlus Warmup Error Summary. During Warmup: 0 Warning; 0 Severe Errors.
   ************* EnergyPlus Sizing Error Summary. During Sizing: 0 Warning; 0 Severe Errors.
   ************* EnergyPlus Completed Successfully-- 55 Warning; 0 Severe Errors; Elapsed Time=00hr 26min 23.23sec
