  0
SECTION
  2
ENTITIES
999
DXF created from EnergyPlus
999
Program Version,EnergyPlus, Linux, VERSION 6.0.0.023
999
Polygon Action,TRIANGULATE3DFACE
999
Color Scheme,Default
999
Text - True North
  0
TEXT
  8
1
  6
Continuous
 62
  3
 10
      -18.43538
 20
      -10.23095
 30
        0.10000
 40
 .25
  1
True North
 41
 0.0
  7
MONOTXT
210
0.0
220
0.0
230
1.0
999
Text - Building Title
  0
TEXT
  8
1
  6
Continuous
 62
  3
 10
      -21.43538
 20
      -14.23095
 30
        0.10000
 40
 .4
  1
Building - Building
 41
 0.0
  7
MONOTXT
210
0.0
220
0.0
230
1.0
999
North Arrow Stem
  0
3DFACE
  8
1
 62
  3
 10
      -17.43538
 20
      -10.23095
 30
        0.10000
 11
      -17.43538
 21
      -10.23095
 31
        0.00000
 12
      -17.43538
 22
      -13.23095
 32
        0.00000
 13
      -17.43538
 23
      -13.23095
 33
        0.10000
999
North Arrow Head 1
  0
3DFACE
  8
1
 62
  3
 10
      -17.43538
 20
      -10.23095
 30
        0.10000
 11
      -17.43538
 21
      -10.23095
 31
        0.00000
 12
      -17.93538
 22
      -11.09698
 32
        0.00000
 13
      -17.93538
 23
      -11.09698
 33
        0.10000
999
North Arrow Head 2
  0
3DFACE
  8
1
 62
  3
 10
      -17.43538
 20
      -10.23095
 30
        0.10000
 11
      -17.43538
 21
      -10.23095
 31
        0.00000
 12
      -16.93538
 22
      -11.09698
 32
        0.00000
 13
      -16.93538
 23
      -11.09698
 33
        0.10000
999
North Arrow Side 1
  0
3DFACE
  8
1
 62
  3
 10
      -17.93538
 20
       -8.73095
 30
        0.10000
 11
      -17.93538
 21
       -8.73095
 31
        0.00000
 12
      -17.93538
 22
       -9.73095
 32
        0.00000
 13
      -17.93538
 23
       -9.73095
 33
        0.10000
999
North Arrow Side 2
  0
3DFACE
  8
1
 62
  3
 10
      -17.93538
 20
       -8.73095
 30
        0.10000
 11
      -17.93538
 21
       -8.73095
 31
        0.00000
 12
      -16.93538
 22
       -9.73095
 32
        0.00000
 13
      -16.93538
 23
       -9.73095
 33
        0.10000
999
North Arrow Side 3
  0
3DFACE
  8
1
 62
  3
 10
      -16.93538
 20
       -8.73095
 30
        0.10000
 11
      -16.93538
 21
       -8.73095
 31
        0.00000
 12
      -16.93538
 22
       -9.73095
 32
        0.00000
 13
      -16.93538
 23
       -9.73095
 33
        0.10000
999
Zone Names
999
Zone=1:BLOCK1_OFFICE4
999
Zone=2:BLOCK1_OFFICE5%6
999
Zone=3:BLOCK1_WC
999
Zone=4:BLOCK1_ELEVAT%CORRIDOR0
999
Zone=5:BLOCK2_OFFICE12
999
Zone=6:BLOCK2_ELEVAT%CORRIDOR1
999
Zone=7:BLOCK2_OFFICE11
999
Zone=8:BLOCK2_OFFICE13
999
Zone=9:UNDERGROUND_ZONE2
999
Zone=10:UNDERGROUND_ZONE1
999
Zone=11:FIRSTFLOOR_ZONE7
999
Zone=12:FIRSTFLOOR_ZONE3
999
Zone=13:FIRSTFLOOR_ZONE6
999
Zone=14:FIRSTFLOOR_ZONE5
999
Zone=15:FIRSTFLOOR_ZONE2
999
Zone=16:FIRSTFLOOR_ZONE1
999
Zone=17:FIRSTFLOOR_ZONE4
999
Zone=18:GROUNDFLOOR_ZONE7
999
Zone=19:GROUNDFLOOR_ZONE3
999
Zone=20:GROUNDFLOOR_ZONE6
999
Zone=21:GROUNDFLOOR_ZONE5
999
Zone=22:GROUNDFLOOR_ZONE2
999
Zone=23:GROUNDFLOOR_ZONE1
999
Zone=24:GROUNDFLOOR_ZONE4
999
Zone=25:GROUNDFLOOR_OFFICE3
999
Zone=26:GROUNDFLOOR_OFFICE1
999
Zone=27:GROUNDFLOOR_CORRIDOR%A1
999
Zone=28:GROUNDFLOOR_CORRIDOR%A2
999
Zone=29:GROUNDFLOOR_OFFICE2
999
Zone=30:UNDERGROUNDFLOOR_ZONE1
999
Zone=31:FIRSTFLOOR_OFFICE10
999
Zone=32:FIRSTFLOOR_OFFICE8
999
Zone=33:FIRSTFLOOR_CORRIDOR%B1
999
Zone=34:FIRSTFLOOR_CORRIDOR%B2
999
Zone=35:FIRSTFLOOR_OFFICE9
999
Building Shading:BUILDING 1 - COMPONENT BLOCK 2 - SURFACE 1 (1)
  0
3DFACE
  8
Building Shading
 62
195
 10
        5.57336
 20
       -6.27666
 30
        2.35000
 11
        3.72336
 21
       -9.48095
 31
        2.35000
 12
       10.21855
 22
      -13.23095
 32
        2.35000
 13
       12.06855
 23
      -10.02666
 33
        2.35000
999
Building Shading:Mir-BUILDING 1 - COMPONENT BLOCK 2 - SURFACE 1 (1)
  0
3DFACE
  8
Building Shading
 62
195
 10
       12.06855
 20
      -10.02666
 30
        2.35000
 11
       10.21855
 21
      -13.23095
 31
        2.35000
 12
        3.72336
 22
       -9.48095
 32
        2.35000
 13
        5.57336
 23
       -6.27666
 33
        2.35000
999
Building Shading:BUILDING 1 - COMPONENT BLOCK 2 - SURFACE 2 (2)
  0
3DFACE
  8
Building Shading
 62
195
 10
       12.06855
 20
      -10.02666
 30
        0.00000
 11
       10.21855
 21
      -13.23095
 31
        0.00000
 12
        3.72336
 22
       -9.48095
 32
        0.00000
 13
        5.57336
 23
       -6.27666
 33
        0.00000
999
Building Shading:Mir-BUILDING 1 - COMPONENT BLOCK 2 - SURFACE 2 (2)
  0
3DFACE
  8
Building Shading
 62
195
 10
        5.57336
 20
       -6.27666
 30
        0.00000
 11
        3.72336
 21
       -9.48095
 31
        0.00000
 12
       10.21855
 22
      -13.23095
 32
        0.00000
 13
       12.06855
 23
      -10.02666
 33
        0.00000
999
Building Shading:BUILDING 1 - COMPONENT BLOCK 2 - SURFACE 3 (3)
  0
3DFACE
  8
Building Shading
 62
195
 10
       12.06855
 20
      -10.02666
 30
        2.35000
 11
       12.06855
 21
      -10.02666
 31
        0.00000
 12
        5.57336
 22
       -6.27666
 32
        0.00000
 13
        5.57336
 23
       -6.27666
 33
        2.35000
999
Building Shading:Mir-BUILDING 1 - COMPONENT BLOCK 2 - SURFACE 3 (3)
  0
3DFACE
  8
Building Shading
 62
195
 10
        5.57336
 20
       -6.27666
 30
        2.35000
 11
        5.57336
 21
       -6.27666
 31
        0.00000
 12
       12.06855
 22
      -10.02666
 32
        0.00000
 13
       12.06855
 23
      -10.02666
 33
        2.35000
999
Building Shading:BUILDING 1 - COMPONENT BLOCK 2 - SURFACE 4 (4)
  0
3DFACE
  8
Building Shading
 62
195
 10
       10.21855
 20
      -13.23095
 30
        2.35000
 11
       10.21855
 21
      -13.23095
 31
        0.00000
 12
       12.06855
 22
      -10.02666
 32
        0.00000
 13
       12.06855
 23
      -10.02666
 33
        2.35000
999
Building Shading:Mir-BUILDING 1 - COMPONENT BLOCK 2 - SURFACE 4 (4)
  0
3DFACE
  8
Building Shading
 62
195
 10
       12.06855
 20
      -10.02666
 30
        2.35000
 11
       12.06855
 21
      -10.02666
 31
        0.00000
 12
       10.21855
 22
      -13.23095
 32
        0.00000
 13
       10.21855
 23
      -13.23095
 33
        2.35000
999
Building Shading:BUILDING 1 - COMPONENT BLOCK 2 - SURFACE 5 (5)
  0
3DFACE
  8
Building Shading
 62
195
 10
        3.72336
 20
       -9.48095
 30
        2.35000
 11
        3.72336
 21
       -9.48095
 31
        0.00000
 12
       10.21855
 22
      -13.23095
 32
        0.00000
 13
       10.21855
 23
      -13.23095
 33
        2.35000
999
Building Shading:Mir-BUILDING 1 - COMPONENT BLOCK 2 - SURFACE 5 (5)
  0
3DFACE
  8
Building Shading
 62
195
 10
       10.21855
 20
      -13.23095
 30
        2.35000
 11
       10.21855
 21
      -13.23095
 31
        0.00000
 12
        3.72336
 22
       -9.48095
 32
        0.00000
 13
        3.72336
 23
       -9.48095
 33
        2.35000
999
Building Shading:BUILDING 1 - COMPONENT BLOCK 2 - SURFACE 6 (6)
  0
3DFACE
  8
Building Shading
 62
195
 10
        5.57336
 20
       -6.27666
 30
        2.35000
 11
        5.57336
 21
       -6.27666
 31
        0.00000
 12
        3.72336
 22
       -9.48095
 32
        0.00000
 13
        3.72336
 23
       -9.48095
 33
        2.35000
999
Building Shading:Mir-BUILDING 1 - COMPONENT BLOCK 2 - SURFACE 6 (6)
  0
3DFACE
  8
Building Shading
 62
195
 10
        3.72336
 20
       -9.48095
 30
        2.35000
 11
        3.72336
 21
       -9.48095
 31
        0.00000
 12
        5.57336
 22
       -6.27666
 32
        0.00000
 13
        5.57336
 23
       -6.27666
 33
        2.35000
999
Building Shading:BUILDING 1 - COMPONENT BLOCK 3 - SURFACE 1 (7)
  0
3DFACE
  8
Building Shading
 62
195
 10
        5.57336
 20
       -6.27666
 30
        0.00000
 11
        3.72336
 21
       -9.48095
 31
        0.00000
 12
       -7.43538
 22
       -3.03845
 32
        0.00000
 13
       -5.55507
 23
        0.14834
 33
        0.00000
999
Building Shading:Mir-BUILDING 1 - COMPONENT BLOCK 3 - SURFACE 1 (7)
  0
3DFACE
  8
Building Shading
 62
195
 10
       -5.55507
 20
        0.14834
 30
        0.00000
 11
       -7.43538
 21
       -3.03845
 31
        0.00000
 12
        3.72336
 22
       -9.48095
 32
        0.00000
 13
        5.57336
 23
       -6.27666
 33
        0.00000
999
Building Shading:BUILDING 1 - COMPONENT BLOCK 3 - SURFACE 2 (8)
  0
3DFACE
  8
Building Shading
 62
195
 10
        5.57336
 20
       -6.27666
 30
        2.33361
 11
        5.57336
 21
       -6.27666
 31
        0.00000
 12
       -5.55507
 22
        0.14834
 32
        0.00000
 13
       -5.55507
 23
        0.14834
 33
        2.33361
999
Building Shading:Mir-BUILDING 1 - COMPONENT BLOCK 3 - SURFACE 2 (8)
  0
3DFACE
  8
Building Shading
 62
195
 10
       -5.55507
 20
        0.14834
 30
        2.33361
 11
       -5.55507
 21
        0.14834
 31
        0.00000
 12
        5.57336
 22
       -6.27666
 32
        0.00000
 13
        5.57336
 23
       -6.27666
 33
        2.33361
999
Building Shading:BUILDING 1 - COMPONENT BLOCK 3 - SURFACE 3 (9)
  0
3DFACE
  8
Building Shading
 62
195
 10
       -5.55507
 20
        0.14834
 30
        2.33361
 11
       -5.55507
 21
        0.14834
 31
        0.00000
 12
       -7.43538
 22
       -3.03845
 32
        0.00000
 13
       -7.43538
 23
       -3.03845
 33
        2.33361
999
Building Shading:Mir-BUILDING 1 - COMPONENT BLOCK 3 - SURFACE 3 (9)
  0
3DFACE
  8
Building Shading
 62
195
 10
       -7.43538
 20
       -3.03845
 30
        2.33361
 11
       -7.43538
 21
       -3.03845
 31
        0.00000
 12
       -5.55507
 22
        0.14834
 32
        0.00000
 13
       -5.55507
 23
        0.14834
 33
        2.33361
999
Building Shading:BUILDING 1 - COMPONENT BLOCK 3 - SURFACE 4 (10)
  0
3DFACE
  8
Building Shading
 62
195
 10
        3.72336
 20
       -9.48095
 30
        2.33361
 11
        3.72336
 21
       -9.48095
 31
        0.00000
 12
        5.57336
 22
       -6.27666
 32
        0.00000
 13
        5.57336
 23
       -6.27666
 33
        2.33361
999
Building Shading:Mir-BUILDING 1 - COMPONENT BLOCK 3 - SURFACE 4 (10)
  0
3DFACE
  8
Building Shading
 62
195
 10
        5.57336
 20
       -6.27666
 30
        2.33361
 11
        5.57336
 21
       -6.27666
 31
        0.00000
 12
        3.72336
 22
       -9.48095
 32
        0.00000
 13
        3.72336
 23
       -9.48095
 33
        2.33361
999
Building Shading:BUILDING 1 - COMPONENT BLOCK 3 - SURFACE 5 (11)
  0
3DFACE
  8
Building Shading
 62
195
 10
       -7.43538
 20
       -3.03845
 30
        2.33361
 11
       -7.43538
 21
       -3.03845
 31
        0.00000
 12
        3.72336
 22
       -9.48095
 32
        0.00000
 13
        3.72336
 23
       -9.48095
 33
        2.33361
999
Building Shading:Mir-BUILDING 1 - COMPONENT BLOCK 3 - SURFACE 5 (11)
  0
3DFACE
  8
Building Shading
 62
195
 10
        3.72336
 20
       -9.48095
 30
        2.33361
 11
        3.72336
 21
       -9.48095
 31
        0.00000
 12
       -7.43538
 22
       -3.03845
 32
        0.00000
 13
       -7.43538
 23
       -3.03845
 33
        2.33361
999
Building Shading:BUILDING 1 - COMPONENT BLOCK 3 - SURFACE 6 (12)
  0
3DFACE
  8
Building Shading
 62
195
 10
       -5.55507
 20
        0.14834
 30
        2.33361
 11
       -7.43538
 21
       -3.03845
 31
        2.33361
 12
        3.72336
 22
       -9.48095
 32
        2.33361
 13
        5.57336
 23
       -6.27666
 33
        2.33361
999
Building Shading:Mir-BUILDING 1 - COMPONENT BLOCK 3 - SURFACE 6 (12)
  0
3DFACE
  8
Building Shading
 62
195
 10
        5.57336
 20
       -6.27666
 30
        2.33361
 11
        3.72336
 21
       -9.48095
 31
        2.33361
 12
       -7.43538
 22
       -3.03845
 32
        2.33361
 13
       -5.55507
 23
        0.14834
 33
        2.33361
999
Building Shading:BUILDING 1 - COMPONENT BLOCK 4 - SURFACE 1 (13)
  0
3DFACE
  8
Building Shading
 62
195
 10
       -6.06551
 20
       -0.71677
 30
        7.25000
 11
       -7.43538
 21
       -3.03845
 31
        7.25000
 12
        3.72336
 22
       -9.48095
 32
        7.25000
 13
        5.07486
 23
       -7.14009
 33
        7.25000
999
Building Shading:Mir-BUILDING 1 - COMPONENT BLOCK 4 - SURFACE 1 (13)
  0
3DFACE
  8
Building Shading
 62
195
 10
        5.07486
 20
       -7.14009
 30
        7.25000
 11
        3.72336
 21
       -9.48095
 31
        7.25000
 12
       -7.43538
 22
       -3.03845
 32
        7.25000
 13
       -6.06551
 23
       -0.71677
 33
        7.25000
999
Building Shading:BUILDING 1 - COMPONENT BLOCK 4 - SURFACE 2 (14)
  0
3DFACE
  8
Building Shading
 62
195
 10
        3.72336
 20
       -9.48095
 30
        7.25000
 11
        3.72336
 21
       -9.48095
 31
        2.33361
 12
        5.07486
 22
       -7.14009
 32
        2.33361
 13
        5.07486
 23
       -7.14009
 33
        7.25000
999
Building Shading:Mir-BUILDING 1 - COMPONENT BLOCK 4 - SURFACE 2 (14)
  0
3DFACE
  8
Building Shading
 62
195
 10
        5.07486
 20
       -7.14009
 30
        7.25000
 11
        5.07486
 21
       -7.14009
 31
        2.33361
 12
        3.72336
 22
       -9.48095
 32
        2.33361
 13
        3.72336
 23
       -9.48095
 33
        7.25000
999
Building Shading:BUILDING 1 - COMPONENT BLOCK 4 - SURFACE 3 (15)
  0
3DFACE
  8
Building Shading
 62
195
 10
        5.07486
 20
       -7.14009
 30
        7.25000
 11
        5.07486
 21
       -7.14009
 31
        2.33361
 12
       -6.06551
 22
       -0.71677
 32
        2.33361
 13
       -6.06551
 23
       -0.71677
 33
        7.25000
999
Building Shading:Mir-BUILDING 1 - COMPONENT BLOCK 4 - SURFACE 3 (15)
  0
3DFACE
  8
Building Shading
 62
195
 10
       -6.06551
 20
       -0.71677
 30
        7.25000
 11
       -6.06551
 21
       -0.71677
 31
        2.33361
 12
        5.07486
 22
       -7.14009
 32
        2.33361
 13
        5.07486
 23
       -7.14009
 33
        7.25000
999
Building Shading:BUILDING 1 - COMPONENT BLOCK 4 - SURFACE 4 (16)
  0
3DFACE
  8
Building Shading
 62
195
 10
       -6.06551
 20
       -0.71677
 30
        7.25000
 11
       -6.06551
 21
       -0.71677
 31
        2.33361
 12
       -7.43538
 22
       -3.03845
 32
        2.33361
 13
       -7.43538
 23
       -3.03845
 33
        7.25000
999
Building Shading:Mir-BUILDING 1 - COMPONENT BLOCK 4 - SURFACE 4 (16)
  0
3DFACE
  8
Building Shading
 62
195
 10
       -7.43538
 20
       -3.03845
 30
        7.25000
 11
       -7.43538
 21
       -3.03845
 31
        2.33361
 12
       -6.06551
 22
       -0.71677
 32
        2.33361
 13
       -6.06551
 23
       -0.71677
 33
        7.25000
999
Building Shading:BUILDING 1 - COMPONENT BLOCK 4 - SURFACE 5 (17)
  0
3DFACE
  8
Building Shading
 62
195
 10
       -7.43538
 20
       -3.03845
 30
        7.25000
 11
       -7.43538
 21
       -3.03845
 31
        2.33361
 12
        3.72336
 22
       -9.48095
 32
        2.33361
 13
        3.72336
 23
       -9.48095
 33
        7.25000
999
Building Shading:Mir-BUILDING 1 - COMPONENT BLOCK 4 - SURFACE 5 (17)
  0
3DFACE
  8
Building Shading
 62
195
 10
        3.72336
 20
       -9.48095
 30
        7.25000
 11
        3.72336
 21
       -9.48095
 31
        2.33361
 12
       -7.43538
 22
       -3.03845
 32
        2.33361
 13
       -7.43538
 23
       -3.03845
 33
        7.25000
999
Building Shading:BUILDING 1 - COMPONENT BLOCK 4 - SURFACE 6 (18)
  0
3DFACE
  8
Building Shading
 62
195
 10
        5.07486
 20
       -7.14009
 30
        2.33361
 11
        3.72336
 21
       -9.48095
 31
        2.33361
 12
       -7.43538
 22
       -3.03845
 32
        2.33361
 13
       -6.06551
 23
       -0.71677
 33
        2.33361
999
Building Shading:Mir-BUILDING 1 - COMPONENT BLOCK 4 - SURFACE 6 (18)
  0
3DFACE
  8
Building Shading
 62
195
 10
       -6.06551
 20
       -0.71677
 30
        2.33361
 11
       -7.43538
 21
       -3.03845
 31
        2.33361
 12
        3.72336
 22
       -9.48095
 32
        2.33361
 13
        5.07486
 23
       -7.14009
 33
        2.33361
999
Building Shading:BUILDING 1 - COMPONENT BLOCK 1 - SURFACE 1 (19)
  0
3DFACE
  8
Building Shading
 62
195
 10
       37.48701
 20
        8.45762
 30
        0.00000
 11
       25.83717
 21
      -11.72050
 31
        0.00000
 12
       22.27763
 22
        1.56388
 32
        0.00000
 13
       24.20263
 23
        4.89808
 33
        0.00000
999
Building Shading:Mir-BUILDING 1 - COMPONENT BLOCK 1 - SURFACE 1 (19)
  0
3DFACE
  8
Building Shading
 62
195
 10
       24.20263
 20
        4.89808
 30
        0.00000
 11
       22.27763
 21
        1.56388
 31
        0.00000
 12
       25.83717
 22
      -11.72050
 32
        0.00000
 13
       37.48701
 23
        8.45762
 33
        0.00000
999
Building Shading:BUILDING 1 - COMPONENT BLOCK 1 - SURFACE 2 (20)
  0
3DFACE
  8
Building Shading
 62
195
 10
       22.27763
 20
        1.56388
 30
        5.10000
 11
       25.83717
 21
      -11.72050
 31
        5.10000
 12
       37.48701
 22
        8.45762
 32
        5.10000
 13
       24.20263
 23
        4.89808
 33
        5.10000
999
Building Shading:Mir-BUILDING 1 - COMPONENT BLOCK 1 - SURFACE 2 (20)
  0
3DFACE
  8
Building Shading
 62
195
 10
       24.20263
 20
        4.89808
 30
        5.10000
 11
       37.48701
 21
        8.45762
 31
        5.10000
 12
       25.83717
 22
      -11.72050
 32
        5.10000
 13
       22.27763
 23
        1.56388
 33
        5.10000
999
Building Shading:BUILDING 1 - COMPONENT BLOCK 1 - SURFACE 3 (21)
  0
3DFACE
  8
Building Shading
 62
195
 10
       24.20263
 20
        4.89808
 30
        5.10000
 11
       24.20263
 21
        4.89808
 31
        0.00000
 12
       22.27763
 22
        1.56388
 32
        0.00000
 13
       22.27763
 23
        1.56388
 33
        5.10000
999
Building Shading:Mir-BUILDING 1 - COMPONENT BLOCK 1 - SURFACE 3 (21)
  0
3DFACE
  8
Building Shading
 62
195
 10
       22.27763
 20
        1.56388
 30
        5.10000
 11
       22.27763
 21
        1.56388
 31
        0.00000
 12
       24.20263
 22
        4.89808
 32
        0.00000
 13
       24.20263
 23
        4.89808
 33
        5.10000
999
Building Shading:BUILDING 1 - COMPONENT BLOCK 1 - SURFACE 4 (22)
  0
3DFACE
  8
Building Shading
 62
195
 10
       22.27763
 20
        1.56388
 30
        5.10000
 11
       22.27763
 21
        1.56388
 31
        0.00000
 12
       25.83717
 22
      -11.72050
 32
        0.00000
 13
       25.83717
 23
      -11.72050
 33
        5.10000
999
Building Shading:Mir-BUILDING 1 - COMPONENT BLOCK 1 - SURFACE 4 (22)
  0
3DFACE
  8
Building Shading
 62
195
 10
       25.83717
 20
      -11.72050
 30
        5.10000
 11
       25.83717
 21
      -11.72050
 31
        0.00000
 12
       22.27763
 22
        1.56388
 32
        0.00000
 13
       22.27763
 23
        1.56388
 33
        5.10000
999
Building Shading:BUILDING 1 - COMPONENT BLOCK 1 - SURFACE 5 (23)
  0
3DFACE
  8
Building Shading
 62
195
 10
       25.83717
 20
      -11.72050
 30
        5.10000
 11
       25.83717
 21
      -11.72050
 31
        0.00000
 12
       37.48701
 22
        8.45762
 32
        0.00000
 13
       37.48701
 23
        8.45762
 33
        5.10000
999
Building Shading:Mir-BUILDING 1 - COMPONENT BLOCK 1 - SURFACE 5 (23)
  0
3DFACE
  8
Building Shading
 62
195
 10
       37.48701
 20
        8.45762
 30
        5.10000
 11
       37.48701
 21
        8.45762
 31
        0.00000
 12
       25.83717
 22
      -11.72050
 32
        0.00000
 13
       25.83717
 23
      -11.72050
 33
        5.10000
999
Building Shading:BUILDING 1 - COMPONENT BLOCK 1 - SURFACE 6 (24)
  0
3DFACE
  8
Building Shading
 62
195
 10
       37.48701
 20
        8.45762
 30
        5.10000
 11
       37.48701
 21
        8.45762
 31
        0.00000
 12
       24.20263
 22
        4.89808
 32
        0.00000
 13
       24.20263
 23
        4.89808
 33
        5.10000
999
Building Shading:Mir-BUILDING 1 - COMPONENT BLOCK 1 - SURFACE 6 (24)
  0
3DFACE
  8
Building Shading
 62
195
 10
       24.20263
 20
        4.89808
 30
        5.10000
 11
       24.20263
 21
        4.89808
 31
        0.00000
 12
       37.48701
 22
        8.45762
 32
        0.00000
 13
       37.48701
 23
        8.45762
 33
        5.10000
999
BLOCK1:OFFICE4:BLOCK1:OFFICE4_WALL_2_0_0
  0
3DFACE
  8
BLOCK1_OFFICE4
 62
 43
 10
        8.42452
 20
       -4.40094
 30
        3.35000
 11
        8.42452
 21
       -4.40094
 31
        0.00000
 12
        9.26386
 22
       -4.17664
 32
        0.00000
 13
        9.26386
 23
       -4.17664
 33
        3.35000
999
BLOCK1:OFFICE4:BLOCK1:OFFICE4_WALL_2_0_0_0_0_0_WIN
  0
3DFACE
  8
BLOCK1_OFFICE4
 62
143
 10
        8.65369
 20
       -4.33970
 30
        2.93113
 11
        8.65369
 21
       -4.33970
 31
        0.54113
 12
        9.15606
 22
       -4.20545
 32
        0.54113
 13
        9.15606
 23
       -4.20545
 33
        2.93113
999
BLOCK1:OFFICE4:BLOCK1:OFFICE4_WALL_3_0_0
  0
3DFACE
  8
BLOCK1_OFFICE4
 62
 43
 10
        9.26386
 20
       -4.17664
 30
        3.35000
 11
        9.26386
 21
       -4.17664
 31
        0.00000
 12
       12.42577
 22
        1.29996
 32
        0.00000
 13
       12.42577
 23
        1.29996
 33
        3.35000
999
BLOCK1:OFFICE4:BLOCK1:OFFICE4_WALL_3_0_0_0_0_0_WIN
  0
3DFACE
  8
BLOCK1_OFFICE4
 62
143
 10
       11.96876
 20
        0.50840
 30
        2.93143
 11
       11.96876
 21
        0.50840
 31
        0.54143
 12
       12.25376
 22
        1.00204
 32
        0.54143
 13
       12.25376
 23
        1.00204
 33
        2.93143
999
BLOCK1:OFFICE4:BLOCK1:OFFICE4_WALL_3_0_0_1_0_1_WIN
  0
3DFACE
  8
BLOCK1_OFFICE4
 62
143
 10
       10.51368
 20
       -2.01188
 30
        0.96143
 11
       10.51368
 21
       -2.01188
 31
        0.54143
 12
       11.77868
 22
        0.17916
 32
        0.54143
 13
       11.77868
 23
        0.17916
 33
        0.96143
999
BLOCK1:OFFICE4:BLOCK1:OFFICE4_WALL_3_0_0_2_0_2_WIN
  0
3DFACE
  8
BLOCK1_OFFICE4
 62
143
 10
       10.51368
 20
       -2.01188
 30
        2.93143
 11
       10.51368
 21
       -2.01188
 31
        2.01143
 12
       11.77868
 22
        0.17916
 32
        2.01143
 13
       11.77868
 23
        0.17916
 33
        2.93143
999
BLOCK1:OFFICE4:BLOCK1:OFFICE4_WALL_3_0_0_3_0_3_WIN
  0
3DFACE
  8
BLOCK1_OFFICE4
 62
143
 10
       11.38368
 20
       -0.50500
 30
        1.93143
 11
       11.38368
 21
       -0.50500
 31
        1.04143
 12
       11.77868
 22
        0.17916
 32
        1.04143
 13
       11.77868
 23
        0.17916
 33
        1.93143
999
BLOCK1:OFFICE4:BLOCK1:OFFICE4_WALL_3_0_0_6_0_6_WIN
  0
3DFACE
  8
BLOCK1_OFFICE4
 62
143
 10
       10.14894
 20
       -2.64362
 30
        2.93143
 11
       10.14894
 21
       -2.64362
 31
        0.54143
 12
       10.32416
 22
       -2.34014
 32
        0.54143
 13
       10.32416
 23
       -2.34014
 33
        2.93143
999
BLOCK1:OFFICE4:BLOCK1:OFFICE4_WALL_3_0_0_5_0_5_WIN
  0
3DFACE
  8
BLOCK1_OFFICE4
 62
143
 10
       10.50868
 20
       -2.02054
 30
        1.90143
 11
       10.50868
 21
       -2.02054
 31
        1.04143
 12
       10.90368
 22
       -1.33638
 32
        1.04143
 13
       10.90368
 23
       -1.33638
 33
        1.90143
999
BLOCK1:OFFICE4:BLOCK1:OFFICE4_WALL_3_0_0_4_0_4_WIN
  0
3DFACE
  8
BLOCK1_OFFICE4
 62
143
 10
       10.94618
 20
       -1.26277
 30
        1.93143
 11
       10.94618
 21
       -1.26277
 31
        1.04143
 12
       11.34118
 22
       -0.57861
 32
        1.04143
 13
       11.34118
 23
       -0.57861
 33
        1.93143
999
BLOCK1:OFFICE4:BLOCK1:OFFICE4_PARTITION_4_0_0
  0
3DFACE
  8
BLOCK1_OFFICE4
 62
 43
 10
       12.42577
 20
        1.29996
 30
        3.35000
 11
       12.42577
 21
        1.29996
 31
        0.00000
 12
       10.93159
 22
        2.16263
 32
        0.00000
 13
       10.93159
 23
        2.16263
 33
        3.35000
999
BLOCK1:OFFICE4:BLOCK1:OFFICE4_PARTITION_5_0_0
  0
3DFACE
  8
BLOCK1_OFFICE4
 62
 43
 10
       10.93159
 20
        2.16263
 30
        3.35000
 11
       10.93159
 21
        2.16263
 31
        0.00000
 12
        9.94016
 22
        1.80928
 32
        0.00000
 13
        9.94016
 23
        1.80928
 33
        3.35000
999
BLOCK1:OFFICE4:BLOCK1:OFFICE4_PARTITION_5_0_0_0_0_0_DOOR
  0
3DFACE
  8
BLOCK1_OFFICE4
 62
 45
 10
       10.90770
 20
        2.15411
 30
        2.19800
 11
       10.90770
 21
        2.15411
 31
        0.00200
 12
       10.06370
 22
        1.85330
 32
        0.00200
 13
       10.06370
 23
        1.85330
 33
        2.19800
999
BLOCK1:OFFICE4:BLOCK1:OFFICE4_WALL_6_0_0
  0
3DFACE
  8
BLOCK1_OFFICE4
 62
 43
 10
        9.94016
 20
        1.80928
 30
        3.35000
 11
        9.94016
 21
        1.80928
 31
        0.00000
 12
        9.77533
 22
        1.48805
 32
        0.00000
 13
        9.77533
 23
        1.48805
 33
        3.35000
999
BLOCK1:OFFICE4:BLOCK1:OFFICE4_WALL_7_0_0
  0
3DFACE
  8
BLOCK1_OFFICE4
 62
 43
 10
        9.77533
 20
        1.48805
 30
        3.35000
 11
        9.77533
 21
        1.48805
 31
        0.00000
 12
        9.31931
 22
        0.92818
 32
        0.00000
 13
        9.31931
 23
        0.92818
 33
        3.35000
999
BLOCK1:OFFICE4:BLOCK1:OFFICE4_WALL_8_0_0
  0
3DFACE
  8
BLOCK1_OFFICE4
 62
 43
 10
        9.31931
 20
        0.92818
 30
        3.35000
 11
        9.31931
 21
        0.92818
 31
        0.00000
 12
        8.75684
 22
        0.47536
 32
        0.00000
 13
        8.75684
 23
        0.47536
 33
        3.35000
999
BLOCK1:OFFICE4:BLOCK1:OFFICE4_WALL_9_0_0
  0
3DFACE
  8
BLOCK1_OFFICE4
 62
 43
 10
        8.75684
 20
        0.47536
 30
        3.35000
 11
        8.75684
 21
        0.47536
 31
        0.00000
 12
        8.11252
 22
        0.14938
 32
        0.00000
 13
        8.11252
 23
        0.14938
 33
        3.35000
999
BLOCK1:OFFICE4:BLOCK1:OFFICE4_WALL_10_0_0
  0
3DFACE
  8
BLOCK1_OFFICE4
 62
 43
 10
        8.11252
 20
        0.14938
 30
        3.35000
 11
        8.11252
 21
        0.14938
 31
        0.00000
 12
        7.41450
 22
       -0.03552
 32
        0.00000
 13
        7.41450
 23
       -0.03552
 33
        3.35000
999
BLOCK1:OFFICE4:BLOCK1:OFFICE4_PARTITION_12_0_0
  0
3DFACE
  8
BLOCK1_OFFICE4
 62
 43
 10
        7.41251
 20
       -0.03562
 30
        3.35000
 11
        7.41251
 21
       -0.03562
 31
        0.00000
 12
        7.58632
 22
       -1.52071
 32
        0.00000
 13
        7.58632
 23
       -1.52071
 33
        3.35000
999
BLOCK1:OFFICE4:BLOCK1:OFFICE4_PARTITION_13_0_0
  0
3DFACE
  8
BLOCK1_OFFICE4
 62
 43
 10
        7.58632
 20
       -1.52071
 30
        3.35000
 11
        7.58632
 21
       -1.52071
 31
        0.00000
 12
        6.55324
 22
       -3.32056
 32
        0.00000
 13
        6.55324
 23
       -3.32056
 33
        3.35000
999
BLOCK1:OFFICE4:BLOCK1:OFFICE4_WALL_14_0_0
  0
3DFACE
  8
BLOCK1_OFFICE4
 62
 43
 10
        6.55324
 20
       -3.32056
 30
        3.35000
 11
        6.55324
 21
       -3.32056
 31
        0.00000
 12
        8.42452
 22
       -4.40094
 32
        0.00000
 13
        8.42452
 23
       -4.40094
 33
        3.35000
999
BLOCK1:OFFICE4:BLOCK1:OFFICE4_WALL_14_0_0_0_0_0_WIN
  0
3DFACE
  8
BLOCK1_OFFICE4
 62
143
 10
        6.71606
 20
       -3.41456
 30
        2.93343
 11
        6.71606
 21
       -3.41456
 31
        0.54343
 12
        7.01917
 22
       -3.58956
 32
        0.54343
 13
        7.01917
 23
       -3.58956
 33
        2.93343
999
BLOCK1:OFFICE4:BLOCK1:OFFICE4_GROUNDFLOOR_0_0_0
  0
3DFACE
  8
BLOCK1_OFFICE4
 62
  8
 10
       12.42577
 20
        1.29996
 30
        0.00000
 11
        9.26386
 21
       -4.17664
 31
        0.00000
 12
        8.42452
 22
       -4.40094
 32
        0.00000
 13
        8.42452
 23
       -4.40094
 33
        0.00000
  0
3DFACE
  8
BLOCK1_OFFICE4
 62
  8
 10
       12.42577
 20
        1.29996
 30
        0.00000
 11
        8.42452
 21
       -4.40094
 31
        0.00000
 12
        6.55324
 22
       -3.32056
 32
        0.00000
 13
        6.55324
 23
       -3.32056
 33
        0.00000
  0
3DFACE
  8
BLOCK1_OFFICE4
 62
  8
 10
       12.42577
 20
        1.29996
 30
        0.00000
 11
        6.55324
 21
       -3.32056
 31
        0.00000
 12
        7.58632
 22
       -1.52071
 32
        0.00000
 13
        7.58632
 23
       -1.52071
 33
        0.00000
  0
3DFACE
  8
BLOCK1_OFFICE4
 62
  8
 10
        7.58632
 20
       -1.52071
 30
        0.00000
 11
        7.41251
 21
       -0.03562
 31
        0.00000
 12
        7.41450
 22
       -0.03552
 32
        0.00000
 13
        7.41450
 23
       -0.03552
 33
        0.00000
  0
3DFACE
  8
BLOCK1_OFFICE4
 62
  8
 10
        7.58632
 20
       -1.52071
 30
        0.00000
 11
        7.41450
 21
       -0.03552
 31
        0.00000
 12
        8.11252
 22
        0.14938
 32
        0.00000
 13
        8.11252
 23
        0.14938
 33
        0.00000
  0
3DFACE
  8
BLOCK1_OFFICE4
 62
  8
 10
       12.42577
 20
        1.29996
 30
        0.00000
 11
        7.58632
 21
       -1.52071
 31
        0.00000
 12
        8.11252
 22
        0.14938
 32
        0.00000
 13
        8.11252
 23
        0.14938
 33
        0.00000
  0
3DFACE
  8
BLOCK1_OFFICE4
 62
  8
 10
       12.42577
 20
        1.29996
 30
        0.00000
 11
        8.11252
 21
        0.14938
 31
        0.00000
 12
        8.75684
 22
        0.47536
 32
        0.00000
 13
        8.75684
 23
        0.47536
 33
        0.00000
  0
3DFACE
  8
BLOCK1_OFFICE4
 62
  8
 10
       12.42577
 20
        1.29996
 30
        0.00000
 11
        8.75684
 21
        0.47536
 31
        0.00000
 12
        9.31931
 22
        0.92818
 32
        0.00000
 13
        9.31931
 23
        0.92818
 33
        0.00000
  0
3DFACE
  8
BLOCK1_OFFICE4
 62
  8
 10
       12.42577
 20
        1.29996
 30
        0.00000
 11
        9.31931
 21
        0.92818
 31
        0.00000
 12
        9.77533
 22
        1.48805
 32
        0.00000
 13
        9.77533
 23
        1.48805
 33
        0.00000
  0
3DFACE
  8
BLOCK1_OFFICE4
 62
  8
 10
       12.42577
 20
        1.29996
 30
        0.00000
 11
        9.77533
 21
        1.48805
 31
        0.00000
 12
        9.94016
 22
        1.80928
 32
        0.00000
 13
        9.94016
 23
        1.80928
 33
        0.00000
  0
3DFACE
  8
BLOCK1_OFFICE4
 62
  8
 10
       12.42577
 20
        1.29996
 30
        0.00000
 11
        9.94016
 21
        1.80928
 31
        0.00000
 12
       10.93159
 22
        2.16263
 32
        0.00000
 13
       10.93159
 23
        2.16263
 33
        0.00000
999
BLOCK1:OFFICE4:BLOCK1:OFFICE4_CEILING_1_0_0
  0
3DFACE
  8
BLOCK1_OFFICE4
 62
 15
 10
        7.58632
 20
       -1.52071
 30
        3.35000
 11
        6.55324
 21
       -3.32056
 31
        3.35000
 12
        8.42452
 22
       -4.40094
 32
        3.35000
 13
        8.42452
 23
       -4.40094
 33
        3.35000
  0
3DFACE
  8
BLOCK1_OFFICE4
 62
 15
 10
        7.58632
 20
       -1.52071
 30
        3.35000
 11
        8.42452
 21
       -4.40094
 31
        3.35000
 12
        9.26386
 22
       -4.17664
 32
        3.35000
 13
        9.26386
 23
       -4.17664
 33
        3.35000
  0
3DFACE
  8
BLOCK1_OFFICE4
 62
 15
 10
        9.26386
 20
       -4.17664
 30
        3.35000
 11
       12.42577
 21
        1.29996
 31
        3.35000
 12
       10.93159
 22
        2.16263
 32
        3.35000
 13
       10.93159
 23
        2.16263
 33
        3.35000
  0
3DFACE
  8
BLOCK1_OFFICE4
 62
 15
 10
        9.26386
 20
       -4.17664
 30
        3.35000
 11
       10.93159
 21
        2.16263
 31
        3.35000
 12
        9.94016
 22
        1.80928
 32
        3.35000
 13
        9.94016
 23
        1.80928
 33
        3.35000
  0
3DFACE
  8
BLOCK1_OFFICE4
 62
 15
 10
        9.26386
 20
       -4.17664
 30
        3.35000
 11
        9.94016
 21
        1.80928
 31
        3.35000
 12
        9.77533
 22
        1.48805
 32
        3.35000
 13
        9.77533
 23
        1.48805
 33
        3.35000
  0
3DFACE
  8
BLOCK1_OFFICE4
 62
 15
 10
        9.26386
 20
       -4.17664
 30
        3.35000
 11
        9.77533
 21
        1.48805
 31
        3.35000
 12
        9.31931
 22
        0.92818
 32
        3.35000
 13
        9.31931
 23
        0.92818
 33
        3.35000
  0
3DFACE
  8
BLOCK1_OFFICE4
 62
 15
 10
        9.26386
 20
       -4.17664
 30
        3.35000
 11
        9.31931
 21
        0.92818
 31
        3.35000
 12
        8.75684
 22
        0.47536
 32
        3.35000
 13
        8.75684
 23
        0.47536
 33
        3.35000
  0
3DFACE
  8
BLOCK1_OFFICE4
 62
 15
 10
        9.26386
 20
       -4.17664
 30
        3.35000
 11
        8.75684
 21
        0.47536
 31
        3.35000
 12
        8.11252
 22
        0.14938
 32
        3.35000
 13
        8.11252
 23
        0.14938
 33
        3.35000
  0
3DFACE
  8
BLOCK1_OFFICE4
 62
 15
 10
        9.26386
 20
       -4.17664
 30
        3.35000
 11
        8.11252
 21
        0.14938
 31
        3.35000
 12
        7.41450
 22
       -0.03552
 32
        3.35000
 13
        7.41450
 23
       -0.03552
 33
        3.35000
  0
3DFACE
  8
BLOCK1_OFFICE4
 62
 15
 10
        9.26386
 20
       -4.17664
 30
        3.35000
 11
        7.41450
 21
       -0.03552
 31
        3.35000
 12
        7.41251
 22
       -0.03562
 32
        3.35000
 13
        7.41251
 23
       -0.03562
 33
        3.35000
  0
3DFACE
  8
BLOCK1_OFFICE4
 62
 15
 10
        7.58632
 20
       -1.52071
 30
        3.35000
 11
        9.26386
 21
       -4.17664
 31
        3.35000
 12
        7.41251
 22
       -0.03562
 32
        3.35000
 13
        7.41251
 23
       -0.03562
 33
        3.35000
999
BLOCK1:OFFICE5%6:BLOCK1:OFFICE5%6_PARTITION_4_0_10004
  0
3DFACE
  8
BLOCK1_OFFICE5%6
 62
 43
 10
        7.58632
 20
       -1.52071
 30
        3.35000
 11
        7.58632
 21
       -1.52071
 31
        0.00000
 12
        7.41251
 22
       -0.03562
 32
        0.00000
 13
        7.41251
 23
       -0.03562
 33
        3.35000
999
BLOCK1:OFFICE5%6:BLOCK1:OFFICE5%6_PARTITION_3_0_10005
  0
3DFACE
  8
BLOCK1_OFFICE5%6
 62
 43
 10
        6.55324
 20
       -3.32056
 30
        3.35000
 11
        6.55324
 21
       -3.32056
 31
        0.00000
 12
        7.58632
 22
       -1.52071
 32
        0.00000
 13
        7.58632
 23
       -1.52071
 33
        3.35000
999
BLOCK1:OFFICE5%6:BLOCK1:OFFICE5%6_WALL_2_0_0
  0
3DFACE
  8
BLOCK1_OFFICE5%6
 62
 43
 10
        2.16741
 20
       -0.78840
 30
        3.35000
 11
        2.16741
 21
       -0.78840
 31
        0.00000
 12
        6.55324
 22
       -3.32056
 32
        0.00000
 13
        6.55324
 23
       -3.32056
 33
        3.35000
999
BLOCK1:OFFICE5%6:BLOCK1:OFFICE5%6_WALL_2_0_0_0_0_0_WIN
  0
3DFACE
  8
BLOCK1_OFFICE5%6
 62
143
 10
        4.11729
 20
       -1.91417
 30
        1.01981
 11
        4.11729
 21
       -1.91417
 31
        0.53981
 12
        6.25638
 22
       -3.14917
 32
        0.53981
 13
        6.25638
 23
       -3.14917
 33
        1.01981
999
BLOCK1:OFFICE5%6:BLOCK1:OFFICE5%6_WALL_2_0_0_1_0_1_WIN
  0
3DFACE
  8
BLOCK1_OFFICE5%6
 62
143
 10
        5.58954
 20
       -2.76417
 30
        1.92981
 11
        5.58954
 21
       -2.76417
 31
        1.09981
 12
        6.25638
 22
       -3.14917
 32
        1.09981
 13
        6.25638
 23
       -3.14917
 33
        1.92981
999
BLOCK1:OFFICE5%6:BLOCK1:OFFICE5%6_WALL_2_0_0_4_0_4_WIN
  0
3DFACE
  8
BLOCK1_OFFICE5%6
 62
143
 10
        4.11729
 20
       -1.91417
 30
        2.92981
 11
        4.11729
 21
       -1.91417
 31
        2.00981
 12
        6.25638
 22
       -3.14917
 32
        2.00981
 13
        6.25638
 23
       -3.14917
 33
        2.92981
999
BLOCK1:OFFICE5%6:BLOCK1:OFFICE5%6_WALL_2_0_0_8_0_8_WIN
  0
3DFACE
  8
BLOCK1_OFFICE5%6
 62
143
 10
        2.38109
 20
       -0.91177
 30
        2.92981
 11
        2.38109
 21
       -0.91177
 31
        2.00981
 12
        3.78405
 22
       -1.72177
 32
        2.00981
 13
        3.78405
 23
       -1.72177
 33
        2.92981
999
BLOCK1:OFFICE5%6:BLOCK1:OFFICE5%6_WALL_2_0_0_3_0_3_WIN
  0
3DFACE
  8
BLOCK1_OFFICE5%6
 62
143
 10
        4.11729
 20
       -1.91417
 30
        1.92981
 11
        4.11729
 21
       -1.91417
 31
        1.09981
 12
        4.78413
 22
       -2.29917
 32
        1.09981
 13
        4.78413
 23
       -2.29917
 33
        1.92981
999
BLOCK1:OFFICE5%6:BLOCK1:OFFICE5%6_WALL_2_0_0_2_0_2_WIN
  0
3DFACE
  8
BLOCK1_OFFICE5%6
 62
143
 10
        4.82883
 20
       -2.32497
 30
        1.92981
 11
        4.82883
 21
       -2.32497
 31
        1.09981
 12
        5.49567
 22
       -2.70997
 32
        1.09981
 13
        5.49567
 23
       -2.70997
 33
        1.92981
999
BLOCK1:OFFICE5%6:BLOCK1:OFFICE5%6_WALL_2_0_0_6_0_6_WIN
  0
3DFACE
  8
BLOCK1_OFFICE5%6
 62
143
 10
        3.11770
 20
       -1.33705
 30
        1.92981
 11
        3.11770
 21
       -1.33705
 31
        1.09981
 12
        3.78454
 22
       -1.72205
 32
        1.09981
 13
        3.78454
 23
       -1.72205
 33
        1.92981
999
BLOCK1:OFFICE5%6:BLOCK1:OFFICE5%6_WALL_2_0_0_7_0_7_WIN
  0
3DFACE
  8
BLOCK1_OFFICE5%6
 62
143
 10
        2.38109
 20
       -0.91177
 30
        1.92981
 11
        2.38109
 21
       -0.91177
 31
        1.09981
 12
        3.04793
 22
       -1.29677
 32
        1.09981
 13
        3.04793
 23
       -1.29677
 33
        1.92981
999
BLOCK1:OFFICE5%6:BLOCK1:OFFICE5%6_WALL_2_0_0_5_0_5_WIN
  0
3DFACE
  8
BLOCK1_OFFICE5%6
 62
143
 10
        2.38109
 20
       -0.91177
 30
        1.01981
 11
        2.38109
 21
       -0.91177
 31
        0.53981
 12
        3.78405
 22
       -1.72177
 32
        0.53981
 13
        3.78405
 23
       -1.72177
 33
        1.01981
999
BLOCK1:OFFICE5%6:BLOCK1:OFFICE5%6_WALL_5_0_0
  0
3DFACE
  8
BLOCK1_OFFICE5%6
 62
 43
 10
        7.41251
 20
       -0.03562
 30
        3.35000
 11
        7.41251
 21
       -0.03562
 31
        0.00000
 12
        6.69330
 22
       -0.07125
 32
        0.00000
 13
        6.69330
 23
       -0.07125
 33
        3.35000
999
BLOCK1:OFFICE5%6:BLOCK1:OFFICE5%6_WALL_6_0_0
  0
3DFACE
  8
BLOCK1_OFFICE5%6
 62
 43
 10
        6.69330
 20
       -0.07125
 30
        3.35000
 11
        6.69330
 21
       -0.07125
 31
        0.00000
 12
        5.98042
 22
        0.04375
 32
        0.00000
 13
        5.98042
 23
        0.04375
 33
        3.35000
999
BLOCK1:OFFICE5%6:BLOCK1:OFFICE5%6_WALL_7_0_0
  0
3DFACE
  8
BLOCK1_OFFICE5%6
 62
 43
 10
        5.98042
 20
        0.04375
 30
        3.35000
 11
        5.98042
 21
        0.04375
 31
        0.00000
 12
        5.30704
 22
        0.30445
 32
        0.00000
 13
        5.30704
 23
        0.30445
 33
        3.35000
999
BLOCK1:OFFICE5%6:BLOCK1:OFFICE5%6_WALL_8_0_0
  0
3DFACE
  8
BLOCK1_OFFICE5%6
 62
 43
 10
        5.30704
 20
        0.30445
 30
        3.35000
 11
        5.30704
 21
        0.30445
 31
        0.00000
 12
        4.70257
 22
        0.69945
 32
        0.00000
 13
        4.70257
 23
        0.69945
 33
        3.35000
999
BLOCK1:OFFICE5%6:BLOCK1:OFFICE5%6_WALL_9_0_0
  0
3DFACE
  8
BLOCK1_OFFICE5%6
 62
 43
 10
        4.70257
 20
        0.69945
 30
        3.35000
 11
        4.70257
 21
        0.69945
 31
        0.00000
 12
        4.19343
 22
        1.21151
 32
        0.00000
 13
        4.19343
 23
        1.21151
 33
        3.35000
999
BLOCK1:OFFICE5%6:BLOCK1:OFFICE5%6_WALL_10_0_0
  0
3DFACE
  8
BLOCK1_OFFICE5%6
 62
 43
 10
        4.19343
 20
        1.21151
 30
        3.35000
 11
        4.19343
 21
        1.21151
 31
        0.00000
 12
        3.80189
 22
        1.81822
 32
        0.00000
 13
        3.80189
 23
        1.81822
 33
        3.35000
999
BLOCK1:OFFICE5%6:BLOCK1:OFFICE5%6_WALL_11_0_0
  0
3DFACE
  8
BLOCK1_OFFICE5%6
 62
 43
 10
        3.80189
 20
        1.81822
 30
        3.35000
 11
        3.80189
 21
        1.81822
 31
        0.00000
 12
        3.68801
 22
        2.11742
 32
        0.00000
 13
        3.68801
 23
        2.11742
 33
        3.35000
999
BLOCK1:OFFICE5%6:BLOCK1:OFFICE5%6_WALL_12_0_0
  0
3DFACE
  8
BLOCK1_OFFICE5%6
 62
 43
 10
        3.68801
 20
        2.11742
 30
        3.35000
 11
        3.68801
 21
        2.11742
 31
        0.00000
 12
        2.17963
 22
        1.71898
 32
        0.00000
 13
        2.17963
 23
        1.71898
 33
        3.35000
999
BLOCK1:OFFICE5%6:BLOCK1:OFFICE5%6_WALL_12_0_0_0_0_0_DOOR
  0
3DFACE
  8
BLOCK1_OFFICE5%6
 62
 45
 10
        3.09988
 20
        1.96207
 30
        2.19800
 11
        3.09988
 21
        1.96207
 31
        0.00200
 12
        2.33027
 22
        1.75877
 32
        0.00200
 13
        2.33027
 23
        1.75877
 33
        2.19800
999
BLOCK1:OFFICE5%6:BLOCK1:OFFICE5%6_PARTITION_13_0_0
  0
3DFACE
  8
BLOCK1_OFFICE5%6
 62
 43
 10
        2.17963
 20
        1.71898
 30
        3.35000
 11
        2.17963
 21
        1.71898
 31
        0.00000
 12
        2.37178
 22
        0.99707
 32
        0.00000
 13
        2.37178
 23
        0.99707
 33
        3.35000
999
BLOCK1:OFFICE5%6:BLOCK1:OFFICE5%6_PARTITION_14_0_0
  0
3DFACE
  8
BLOCK1_OFFICE5%6
 62
 43
 10
        2.37178
 20
        0.99707
 30
        3.35000
 11
        2.37178
 21
        0.99707
 31
        0.00000
 12
        3.01127
 22
        0.62786
 32
        0.00000
 13
        3.01127
 23
        0.62786
 33
        3.35000
999
BLOCK1:OFFICE5%6:BLOCK1:OFFICE5%6_PARTITION_15_0_0
  0
3DFACE
  8
BLOCK1_OFFICE5%6
 62
 43
 10
        3.01127
 20
        0.62786
 30
        3.35000
 11
        3.01127
 21
        0.62786
 31
        0.00000
 12
        2.16741
 22
       -0.78840
 32
        0.00000
 13
        2.16741
 23
       -0.78840
 33
        3.35000
999
BLOCK1:OFFICE5%6:BLOCK1:OFFICE5%6_GROUNDFLOOR_0_0_0
  0
3DFACE
  8
BLOCK1_OFFICE5%6
 62
  8
 10
        7.58632
 20
       -1.52071
 30
        0.00000
 11
        6.55324
 21
       -3.32056
 31
        0.00000
 12
        2.16741
 22
       -0.78840
 32
        0.00000
 13
        2.16741
 23
       -0.78840
 33
        0.00000
  0
3DFACE
  8
BLOCK1_OFFICE5%6
 62
  8
 10
        7.58632
 20
       -1.52071
 30
        0.00000
 11
        2.16741
 21
       -0.78840
 31
        0.00000
 12
        3.01127
 22
        0.62786
 32
        0.00000
 13
        3.01127
 23
        0.62786
 33
        0.00000
  0
3DFACE
  8
BLOCK1_OFFICE5%6
 62
  8
 10
        7.58632
 20
       -1.52071
 30
        0.00000
 11
        3.01127
 21
        0.62786
 31
        0.00000
 12
        2.37178
 22
        0.99707
 32
        0.00000
 13
        2.37178
 23
        0.99707
 33
        0.00000
  0
3DFACE
  8
BLOCK1_OFFICE5%6
 62
  8
 10
        7.58632
 20
       -1.52071
 30
        0.00000
 11
        2.37178
 21
        0.99707
 31
        0.00000
 12
        2.17963
 22
        1.71898
 32
        0.00000
 13
        2.17963
 23
        1.71898
 33
        0.00000
  0
3DFACE
  8
BLOCK1_OFFICE5%6
 62
  8
 10
        2.17963
 20
        1.71898
 30
        0.00000
 11
        3.68801
 21
        2.11742
 31
        0.00000
 12
        3.80189
 22
        1.81822
 32
        0.00000
 13
        3.80189
 23
        1.81822
 33
        0.00000
  0
3DFACE
  8
BLOCK1_OFFICE5%6
 62
  8
 10
        6.69330
 20
       -0.07125
 30
        0.00000
 11
        7.41251
 21
       -0.03562
 31
        0.00000
 12
        7.58632
 22
       -1.52071
 32
        0.00000
 13
        7.58632
 23
       -1.52071
 33
        0.00000
  0
3DFACE
  8
BLOCK1_OFFICE5%6
 62
  8
 10
        5.98042
 20
        0.04375
 30
        0.00000
 11
        6.69330
 21
       -0.07125
 31
        0.00000
 12
        7.58632
 22
       -1.52071
 32
        0.00000
 13
        7.58632
 23
       -1.52071
 33
        0.00000
  0
3DFACE
  8
BLOCK1_OFFICE5%6
 62
  8
 10
        5.30704
 20
        0.30445
 30
        0.00000
 11
        5.98042
 21
        0.04375
 31
        0.00000
 12
        7.58632
 22
       -1.52071
 32
        0.00000
 13
        7.58632
 23
       -1.52071
 33
        0.00000
  0
3DFACE
  8
BLOCK1_OFFICE5%6
 62
  8
 10
        4.70257
 20
        0.69945
 30
        0.00000
 11
        5.30704
 21
        0.30445
 31
        0.00000
 12
        7.58632
 22
       -1.52071
 32
        0.00000
 13
        7.58632
 23
       -1.52071
 33
        0.00000
  0
3DFACE
  8
BLOCK1_OFFICE5%6
 62
  8
 10
        4.70257
 20
        0.69945
 30
        0.00000
 11
        7.58632
 21
       -1.52071
 31
        0.00000
 12
        2.17963
 22
        1.71898
 32
        0.00000
 13
        2.17963
 23
        1.71898
 33
        0.00000
  0
3DFACE
  8
BLOCK1_OFFICE5%6
 62
  8
 10
        4.19343
 20
        1.21151
 30
        0.00000
 11
        4.70257
 21
        0.69945
 31
        0.00000
 12
        2.17963
 22
        1.71898
 32
        0.00000
 13
        2.17963
 23
        1.71898
 33
        0.00000
  0
3DFACE
  8
BLOCK1_OFFICE5%6
 62
  8
 10
        2.17963
 20
        1.71898
 30
        0.00000
 11
        3.80189
 21
        1.81822
 31
        0.00000
 12
        4.19343
 22
        1.21151
 32
        0.00000
 13
        4.19343
 23
        1.21151
 33
        0.00000
999
BLOCK1:OFFICE5%6:BLOCK1:OFFICE5%6_CEILING_1_0_0
  0
3DFACE
  8
BLOCK1_OFFICE5%6
 62
 15
 10
        3.01127
 20
        0.62786
 30
        3.35000
 11
        2.16741
 21
       -0.78840
 31
        3.35000
 12
        2.82042
 22
       -1.16541
 32
        3.35000
 13
        2.82042
 23
       -1.16541
 33
        3.35000
  0
3DFACE
  8
BLOCK1_OFFICE5%6
 62
 15
 10
        3.85805
 20
        0.63181
 30
        3.35000
 11
        4.44731
 21
        0.95617
 31
        3.35000
 12
        4.19343
 22
        1.21151
 32
        3.35000
 13
        4.19343
 23
        1.21151
 33
        3.35000
  0
3DFACE
  8
BLOCK1_OFFICE5%6
 62
 15
 10
        3.85805
 20
        0.63181
 30
        3.35000
 11
        4.19343
 21
        1.21151
 31
        3.35000
 12
        3.80189
 22
        1.81822
 32
        3.35000
 13
        3.80189
 23
        1.81822
 33
        3.35000
  0
3DFACE
  8
BLOCK1_OFFICE5%6
 62
 15
 10
        2.82042
 20
       -1.16541
 30
        3.35000
 11
        3.85805
 21
        0.63181
 31
        3.35000
 12
        3.80189
 22
        1.81822
 32
        3.35000
 13
        3.80189
 23
        1.81822
 33
        3.35000
  0
3DFACE
  8
BLOCK1_OFFICE5%6
 62
 15
 10
        2.82042
 20
       -1.16541
 30
        3.35000
 11
        3.80189
 21
        1.81822
 31
        3.35000
 12
        3.68801
 22
        2.11742
 32
        3.35000
 13
        3.68801
 23
        2.11742
 33
        3.35000
  0
3DFACE
  8
BLOCK1_OFFICE5%6
 62
 15
 10
        3.68801
 20
        2.11742
 30
        3.35000
 11
        2.17963
 21
        1.71898
 31
        3.35000
 12
        2.37178
 22
        0.99707
 32
        3.35000
 13
        2.37178
 23
        0.99707
 33
        3.35000
  0
3DFACE
  8
BLOCK1_OFFICE5%6
 62
 15
 10
        3.68801
 20
        2.11742
 30
        3.35000
 11
        2.37178
 21
        0.99707
 31
        3.35000
 12
        3.01127
 22
        0.62786
 32
        3.35000
 13
        3.01127
 23
        0.62786
 33
        3.35000
  0
3DFACE
  8
BLOCK1_OFFICE5%6
 62
 15
 10
        3.01127
 20
        0.62786
 30
        3.35000
 11
        2.82042
 21
       -1.16541
 31
        3.35000
 12
        3.68801
 22
        2.11742
 32
        3.35000
 13
        3.68801
 23
        2.11742
 33
        3.35000
999
BLOCK1:OFFICE5%6:BLOCK1:OFFICE5%6_CEILING_1_1_0
  0
3DFACE
  8
BLOCK1_OFFICE5%6
 62
 15
 10
        6.15069
 20
       -1.16541
 30
        3.35000
 11
        5.30617
 21
       -2.60056
 31
        3.35000
 12
        6.55324
 22
       -3.32056
 32
        3.35000
 13
        6.55324
 23
       -3.32056
 33
        3.35000
  0
3DFACE
  8
BLOCK1_OFFICE5%6
 62
 15
 10
        6.15069
 20
       -1.16541
 30
        3.35000
 11
        6.55324
 21
       -3.32056
 31
        3.35000
 12
        7.58632
 22
       -1.52071
 32
        3.35000
 13
        7.58632
 23
       -1.52071
 33
        3.35000
  0
3DFACE
  8
BLOCK1_OFFICE5%6
 62
 15
 10
        7.58632
 20
       -1.52071
 30
        3.35000
 11
        7.41251
 21
       -0.03562
 31
        3.35000
 12
        6.69330
 22
       -0.07125
 32
        3.35000
 13
        6.69330
 23
       -0.07125
 33
        3.35000
  0
3DFACE
  8
BLOCK1_OFFICE5%6
 62
 15
 10
        7.58632
 20
       -1.52071
 30
        3.35000
 11
        6.69330
 21
       -0.07125
 31
        3.35000
 12
        6.15069
 22
        0.01628
 32
        3.35000
 13
        6.15069
 23
        0.01628
 33
        3.35000
  0
3DFACE
  8
BLOCK1_OFFICE5%6
 62
 15
 10
        6.15069
 20
       -1.16541
 30
        3.35000
 11
        7.58632
 21
       -1.52071
 31
        3.35000
 12
        6.15069
 22
        0.01628
 32
        3.35000
 13
        6.15069
 23
        0.01628
 33
        3.35000
999
BLOCK1:OFFICE5%6:BLOCK1:OFFICE5%6_CEILING_1_2_0
  0
3DFACE
  8
BLOCK1_OFFICE5%6
 62
 15
 10
        3.85805
 20
        0.63181
 30
        3.35000
 11
        2.82042
 21
       -1.16541
 31
        3.35000
 12
        5.30617
 22
       -2.60056
 32
        3.35000
 13
        5.30617
 23
       -2.60056
 33
        3.35000
  0
3DFACE
  8
BLOCK1_OFFICE5%6
 62
 15
 10
        3.85805
 20
        0.63181
 30
        3.35000
 11
        5.30617
 21
       -2.60056
 31
        3.35000
 12
        6.15069
 22
       -1.16541
 32
        3.35000
 13
        6.15069
 23
       -1.16541
 33
        3.35000
  0
3DFACE
  8
BLOCK1_OFFICE5%6
 62
 15
 10
        6.15069
 20
       -1.16541
 30
        3.35000
 11
        6.15069
 21
        0.01628
 31
        3.35000
 12
        5.98042
 22
        0.04375
 32
        3.35000
 13
        5.98042
 23
        0.04375
 33
        3.35000
  0
3DFACE
  8
BLOCK1_OFFICE5%6
 62
 15
 10
        3.85805
 20
        0.63181
 30
        3.35000
 11
        6.15069
 21
       -1.16541
 31
        3.35000
 12
        5.98042
 22
        0.04375
 32
        3.35000
 13
        5.98042
 23
        0.04375
 33
        3.35000
  0
3DFACE
  8
BLOCK1_OFFICE5%6
 62
 15
 10
        3.85805
 20
        0.63181
 30
        3.35000
 11
        5.98042
 21
        0.04375
 31
        3.35000
 12
        5.30704
 22
        0.30445
 32
        3.35000
 13
        5.30704
 23
        0.30445
 33
        3.35000
  0
3DFACE
  8
BLOCK1_OFFICE5%6
 62
 15
 10
        4.70257
 20
        0.69945
 30
        3.35000
 11
        4.44731
 21
        0.95617
 31
        3.35000
 12
        3.85805
 22
        0.63181
 32
        3.35000
 13
        3.85805
 23
        0.63181
 33
        3.35000
  0
3DFACE
  8
BLOCK1_OFFICE5%6
 62
 15
 10
        3.85805
 20
        0.63181
 30
        3.35000
 11
        5.30704
 21
        0.30445
 31
        3.35000
 12
        4.70257
 22
        0.69945
 32
        3.35000
 13
        4.70257
 23
        0.69945
 33
        3.35000
999
BLOCK1:WC:BLOCK1:WC_PARTITION_5_0_10009
  0
3DFACE
  8
BLOCK1_WC
 62
 43
 10
        2.37178
 20
        0.99707
 30
        3.35000
 11
        2.37178
 21
        0.99707
 31
        0.00000
 12
        2.17963
 22
        1.71898
 32
        0.00000
 13
        2.17963
 23
        1.71898
 33
        3.35000
999
BLOCK1:WC:BLOCK1:WC_PARTITION_4_0_10010
  0
3DFACE
  8
BLOCK1_WC
 62
 43
 10
        3.01127
 20
        0.62786
 30
        3.35000
 11
        3.01127
 21
        0.62786
 31
        0.00000
 12
        2.37178
 22
        0.99707
 32
        0.00000
 13
        2.37178
 23
        0.99707
 33
        3.35000
999
BLOCK1:WC:BLOCK1:WC_PARTITION_3_0_10011
  0
3DFACE
  8
BLOCK1_WC
 62
 43
 10
        2.16741
 20
       -0.78840
 30
        3.35000
 11
        2.16741
 21
       -0.78840
 31
        0.00000
 12
        3.01127
 22
        0.62786
 32
        0.00000
 13
        3.01127
 23
        0.62786
 33
        3.35000
999
BLOCK1:WC:BLOCK1:WC_WALL_2_0_0
  0
3DFACE
  8
BLOCK1_WC
 62
 43
 10
        0.38063
 20
        0.24320
 30
        3.35000
 11
        0.38063
 21
        0.24320
 31
        0.00000
 12
        2.16741
 22
       -0.78840
 32
        0.00000
 13
        2.16741
 23
       -0.78840
 33
        3.35000
999
BLOCK1:WC:BLOCK1:WC_WALL_6_0_0
  0
3DFACE
  8
BLOCK1_WC
 62
 43
 10
        2.17963
 20
        1.71898
 30
        3.35000
 11
        2.17963
 21
        1.71898
 31
        0.00000
 12
        0.10170
 22
        1.17010
 32
        0.00000
 13
        0.10170
 23
        1.17010
 33
        3.35000
999
BLOCK1:WC:BLOCK1:WC_WALL_6_0_0_0_0_0_DOOR
  0
3DFACE
  8
BLOCK1_WC
 62
 45
 10
        1.74420
 20
        1.60396
 30
        2.19800
 11
        1.74420
 21
        1.60396
 31
        0.00200
 12
        0.87792
 22
        1.37513
 32
        0.00200
 13
        0.87792
 23
        1.37513
 33
        2.19800
999
BLOCK1:WC:BLOCK1:WC_WALL_7_0_0
  0
3DFACE
  8
BLOCK1_WC
 62
 43
 10
        0.10170
 20
        1.17010
 30
        3.35000
 11
        0.10170
 21
        1.17010
 31
        0.00000
 12
        0.38063
 22
        0.24320
 32
        0.00000
 13
        0.38063
 23
        0.24320
 33
        3.35000
999
BLOCK1:WC:BLOCK1:WC_GROUNDFLOOR_0_0_0
  0
3DFACE
  8
BLOCK1_WC
 62
  8
 10
        3.01127
 20
        0.62786
 30
        0.00000
 11
        2.16741
 21
       -0.78840
 31
        0.00000
 12
        0.38063
 22
        0.24320
 32
        0.00000
 13
        0.38063
 23
        0.24320
 33
        0.00000
  0
3DFACE
  8
BLOCK1_WC
 62
  8
 10
        3.01127
 20
        0.62786
 30
        0.00000
 11
        0.38063
 21
        0.24320
 31
        0.00000
 12
        0.10170
 22
        1.17010
 32
        0.00000
 13
        0.10170
 23
        1.17010
 33
        0.00000
  0
3DFACE
  8
BLOCK1_WC
 62
  8
 10
        0.10170
 20
        1.17010
 30
        0.00000
 11
        2.17963
 21
        1.71898
 31
        0.00000
 12
        2.37178
 22
        0.99707
 32
        0.00000
 13
        2.37178
 23
        0.99707
 33
        0.00000
  0
3DFACE
  8
BLOCK1_WC
 62
  8
 10
        3.01127
 20
        0.62786
 30
        0.00000
 11
        0.10170
 21
        1.17010
 31
        0.00000
 12
        2.37178
 22
        0.99707
 32
        0.00000
 13
        2.37178
 23
        0.99707
 33
        0.00000
999
BLOCK1:WC:BLOCK1:WC_CEILING_1_0_0
  0
3DFACE
  8
BLOCK1_WC
 62
 15
 10
        0.10170
 20
        1.17010
 30
        3.35000
 11
        0.38063
 21
        0.24320
 31
        3.35000
 12
        2.16741
 22
       -0.78840
 32
        3.35000
 13
        2.16741
 23
       -0.78840
 33
        3.35000
  0
3DFACE
  8
BLOCK1_WC
 62
 15
 10
        0.10170
 20
        1.17010
 30
        3.35000
 11
        2.16741
 21
       -0.78840
 31
        3.35000
 12
        3.01127
 22
        0.62786
 32
        3.35000
 13
        3.01127
 23
        0.62786
 33
        3.35000
  0
3DFACE
  8
BLOCK1_WC
 62
 15
 10
        0.10170
 20
        1.17010
 30
        3.35000
 11
        3.01127
 21
        0.62786
 31
        3.35000
 12
        2.37178
 22
        0.99707
 32
        3.35000
 13
        2.37178
 23
        0.99707
 33
        3.35000
  0
3DFACE
  8
BLOCK1_WC
 62
 15
 10
        0.10170
 20
        1.17010
 30
        3.35000
 11
        2.37178
 21
        0.99707
 31
        3.35000
 12
        2.17963
 22
        1.71898
 32
        3.35000
 13
        2.17963
 23
        1.71898
 33
        3.35000
999
BLOCK1:ELEVAT%CORRIDOR0:BLOCK1:ELEVAT%CORRIDOR0_PARTITION_4_0_10001
  0
3DFACE
  8
BLOCK1_ELEVAT%CORRIDOR0
 62
 43
 10
       10.93159
 20
        2.16263
 30
        3.35000
 11
       10.93159
 21
        2.16263
 31
        0.00000
 12
       12.42577
 22
        1.29996
 32
        0.00000
 13
       12.42577
 23
        1.29996
 33
        3.35000
999
BLOCK1:ELEVAT%CORRIDOR0:BLOCK1:ELEVAT%CORRIDOR0_PARTITION_3_0_10002
  0
3DFACE
  8
BLOCK1_ELEVAT%CORRIDOR0
 62
 43
 10
        9.94016
 20
        1.80928
 30
        3.35000
 11
        9.94016
 21
        1.80928
 31
        0.00000
 12
       10.93159
 22
        2.16263
 32
        0.00000
 13
       10.93159
 23
        2.16263
 33
        3.35000
999
BLOCK1:ELEVAT%CORRIDOR0:BLOCK1:ELEVAT%CORRIDOR0_PARTITION_3_0_0_0_0_0_DOOR_10004
  0
3DFACE
  8
BLOCK1_ELEVAT%CORRIDOR0
 62
 45
 10
       10.06370
 20
        1.85330
 30
        2.19800
 11
       10.06370
 21
        1.85330
 31
        0.00200
 12
       10.90770
 22
        2.15411
 32
        0.00200
 13
       10.90770
 23
        2.15411
 33
        2.19800
999
BLOCK1:ELEVAT%CORRIDOR0:BLOCK1:ELEVAT%CORRIDOR0_WALL_2_0_0
  0
3DFACE
  8
BLOCK1_ELEVAT%CORRIDOR0
 62
 43
 10
       10.10499
 20
        2.13050
 30
        3.35000
 11
       10.10499
 21
        2.13050
 31
        0.00000
 12
        9.94016
 22
        1.80928
 32
        0.00000
 13
        9.94016
 23
        1.80928
 33
        3.35000
999
BLOCK1:ELEVAT%CORRIDOR0:BLOCK1:ELEVAT%CORRIDOR0_WALL_5_0_0
  0
3DFACE
  8
BLOCK1_ELEVAT%CORRIDOR0
 62
 43
 10
       12.42577
 20
        1.29996
 30
        3.35000
 11
       12.42577
 21
        1.29996
 31
        0.00000
 12
       13.95316
 22
        3.94548
 32
        0.00000
 13
       13.95316
 23
        3.94548
 33
        3.35000
999
BLOCK1:ELEVAT%CORRIDOR0:BLOCK1:ELEVAT%CORRIDOR0_WALL_6_0_0
  0
3DFACE
  8
BLOCK1_ELEVAT%CORRIDOR0
 62
 43
 10
       13.95316
 20
        3.94548
 30
        3.35000
 11
       13.95316
 21
        3.94548
 31
        0.00000
 12
       13.78427
 22
        4.81110
 32
        0.00000
 13
       13.78427
 23
        4.81110
 33
        3.35000
999
BLOCK1:ELEVAT%CORRIDOR0:BLOCK1:ELEVAT%CORRIDOR0_WALL_7_0_0
  0
3DFACE
  8
BLOCK1_ELEVAT%CORRIDOR0
 62
 43
 10
       13.78427
 20
        4.81110
 30
        3.35000
 11
       13.78427
 21
        4.81110
 31
        0.00000
 12
       10.28433
 22
        3.86622
 32
        0.00000
 13
       10.28433
 23
        3.86622
 33
        3.35000
999
BLOCK1:ELEVAT%CORRIDOR0:BLOCK1:ELEVAT%CORRIDOR0_WALL_7_0_0_0_0_0_HOLE
  0
3DFACE
  8
BLOCK1_ELEVAT%CORRIDOR0
 62
 45
 10
       11.58457
 20
        4.21725
 30
        2.19800
 11
       11.58457
 21
        4.21725
 31
        0.00200
 12
       10.71954
 22
        3.98372
 32
        0.00200
 13
       10.71954
 23
        3.98372
 33
        2.19800
999
BLOCK1:ELEVAT%CORRIDOR0:BLOCK1:ELEVAT%CORRIDOR0_WALL_8_0_0
  0
3DFACE
  8
BLOCK1_ELEVAT%CORRIDOR0
 62
 43
 10
       10.28433
 20
        3.86622
 30
        3.35000
 11
       10.28433
 21
        3.86622
 31
        0.00000
 12
       10.33373
 22
        3.54844
 32
        0.00000
 13
       10.33373
 23
        3.54844
 33
        3.35000
999
BLOCK1:ELEVAT%CORRIDOR0:BLOCK1:ELEVAT%CORRIDOR0_WALL_9_0_0
  0
3DFACE
  8
BLOCK1_ELEVAT%CORRIDOR0
 62
 43
 10
       10.33373
 20
        3.54844
 30
        3.35000
 11
       10.33373
 21
        3.54844
 31
        0.00000
 12
       10.29388
 22
        2.82745
 32
        0.00000
 13
       10.29388
 23
        2.82745
 33
        3.35000
999
BLOCK1:ELEVAT%CORRIDOR0:BLOCK1:ELEVAT%CORRIDOR0_WALL_10_0_0
  0
3DFACE
  8
BLOCK1_ELEVAT%CORRIDOR0
 62
 43
 10
       10.29388
 20
        2.82745
 30
        3.35000
 11
       10.29388
 21
        2.82745
 31
        0.00000
 12
       10.10499
 22
        2.13050
 32
        0.00000
 13
       10.10499
 23
        2.13050
 33
        3.35000
999
BLOCK1:ELEVAT%CORRIDOR0:BLOCK1:ELEVAT%CORRIDOR0_GROUNDFLOOR_0_0_0
  0
3DFACE
  8
BLOCK1_ELEVAT%CORRIDOR0
 62
  8
 10
       13.95316
 20
        3.94548
 30
        0.00000
 11
       12.42577
 21
        1.29996
 31
        0.00000
 12
       10.93159
 22
        2.16263
 32
        0.00000
 13
       10.93159
 23
        2.16263
 33
        0.00000
  0
3DFACE
  8
BLOCK1_ELEVAT%CORRIDOR0
 62
  8
 10
       13.95316
 20
        3.94548
 30
        0.00000
 11
       10.93159
 21
        2.16263
 31
        0.00000
 12
        9.94016
 22
        1.80928
 32
        0.00000
 13
        9.94016
 23
        1.80928
 33
        0.00000
  0
3DFACE
  8
BLOCK1_ELEVAT%CORRIDOR0
 62
  8
 10
       13.95316
 20
        3.94548
 30
        0.00000
 11
        9.94016
 21
        1.80928
 31
        0.00000
 12
       10.10499
 22
        2.13050
 32
        0.00000
 13
       10.10499
 23
        2.13050
 33
        0.00000
  0
3DFACE
  8
BLOCK1_ELEVAT%CORRIDOR0
 62
  8
 10
       13.95316
 20
        3.94548
 30
        0.00000
 11
       10.10499
 21
        2.13050
 31
        0.00000
 12
       10.29388
 22
        2.82745
 32
        0.00000
 13
       10.29388
 23
        2.82745
 33
        0.00000
  0
3DFACE
  8
BLOCK1_ELEVAT%CORRIDOR0
 62
  8
 10
       13.95316
 20
        3.94548
 30
        0.00000
 11
       10.29388
 21
        2.82745
 31
        0.00000
 12
       10.33373
 22
        3.54844
 32
        0.00000
 13
       10.33373
 23
        3.54844
 33
        0.00000
  0
3DFACE
  8
BLOCK1_ELEVAT%CORRIDOR0
 62
  8
 10
       13.95316
 20
        3.94548
 30
        0.00000
 11
       10.33373
 21
        3.54844
 31
        0.00000
 12
       10.28433
 22
        3.86622
 32
        0.00000
 13
       10.28433
 23
        3.86622
 33
        0.00000
  0
3DFACE
  8
BLOCK1_ELEVAT%CORRIDOR0
 62
  8
 10
       13.95316
 20
        3.94548
 30
        0.00000
 11
       10.28433
 21
        3.86622
 31
        0.00000
 12
       13.78427
 22
        4.81110
 32
        0.00000
 13
       13.78427
 23
        4.81110
 33
        0.00000
999
BLOCK1:ELEVAT%CORRIDOR0:BLOCK1:ELEVAT%CORRIDOR0_CEILING_1_0_0
  0
3DFACE
  8
BLOCK1_ELEVAT%CORRIDOR0
 62
 15
 10
       10.10499
 20
        2.13050
 30
        3.35000
 11
        9.94125
 21
        1.81139
 31
        3.35000
 12
       10.93159
 22
        2.16263
 32
        3.35000
 13
       10.93159
 23
        2.16263
 33
        3.35000
  0
3DFACE
  8
BLOCK1_ELEVAT%CORRIDOR0
 62
 15
 10
       10.93159
 20
        2.16263
 30
        3.35000
 11
       12.42577
 21
        1.29996
 31
        3.35000
 12
       13.95316
 22
        3.94548
 32
        3.35000
 13
       13.95316
 23
        3.94548
 33
        3.35000
  0
3DFACE
  8
BLOCK1_ELEVAT%CORRIDOR0
 62
 15
 10
       10.10499
 20
        2.13050
 30
        3.35000
 11
       10.93159
 21
        2.16263
 31
        3.35000
 12
       13.95316
 22
        3.94548
 32
        3.35000
 13
       13.95316
 23
        3.94548
 33
        3.35000
  0
3DFACE
  8
BLOCK1_ELEVAT%CORRIDOR0
 62
 15
 10
       10.10499
 20
        2.13050
 30
        3.35000
 11
       13.95316
 21
        3.94548
 31
        3.35000
 12
       13.78427
 22
        4.81110
 32
        3.35000
 13
       13.78427
 23
        4.81110
 33
        3.35000
  0
3DFACE
  8
BLOCK1_ELEVAT%CORRIDOR0
 62
 15
 10
       13.78427
 20
        4.81110
 30
        3.35000
 11
       10.28433
 21
        3.86622
 31
        3.35000
 12
       10.33373
 22
        3.54844
 32
        3.35000
 13
       10.33373
 23
        3.54844
 33
        3.35000
  0
3DFACE
  8
BLOCK1_ELEVAT%CORRIDOR0
 62
 15
 10
       13.78427
 20
        4.81110
 30
        3.35000
 11
       10.33373
 21
        3.54844
 31
        3.35000
 12
       10.29388
 22
        2.82745
 32
        3.35000
 13
       10.29388
 23
        2.82745
 33
        3.35000
  0
3DFACE
  8
BLOCK1_ELEVAT%CORRIDOR0
 62
 15
 10
       10.10499
 20
        2.13050
 30
        3.35000
 11
       13.78427
 21
        4.81110
 31
        3.35000
 12
       10.29388
 22
        2.82745
 32
        3.35000
 13
       10.29388
 23
        2.82745
 33
        3.35000
999
BLOCK2:OFFICE12:BLOCK2:OFFICE12_WALL_2_0_0
  0
3DFACE
  8
BLOCK2_OFFICE12
 62
 43
 10
        3.80177
 20
        1.81858
 30
        8.70000
 11
        3.80177
 21
        1.81858
 31
        3.35000
 12
        3.68801
 22
        2.11742
 32
        3.35000
 13
        3.68802
 23
        2.11743
 33
        8.70000
999
BLOCK2:OFFICE12:BLOCK2:OFFICE12_WALL_3_0_0
  0
3DFACE
  8
BLOCK2_OFFICE12
 62
 43
 10
        3.68802
 20
        2.11743
 30
        8.70000
 11
        3.68801
 21
        2.11742
 31
        3.35000
 12
        0.10170
 22
        1.17010
 32
        3.35000
 13
        0.10170
 23
        1.17010
 33
        8.70000
999
BLOCK2:OFFICE12:BLOCK2:OFFICE12_WALL_3_0_0_0_0_0_DOOR
  0
3DFACE
  8
BLOCK2_OFFICE12
 62
 45
 10
        3.24626
 20
        2.00073
 30
        5.54800
 11
        3.24626
 21
        2.00073
 31
        3.35200
 12
        2.37998
 22
        1.77190
 32
        3.35200
 13
        2.37998
 23
        1.77190
 33
        5.54800
999
BLOCK2:OFFICE12:BLOCK2:OFFICE12_WALL_4_0_0
  0
3DFACE
  8
BLOCK2_OFFICE12
 62
 43
 10
        0.10170
 20
        1.17010
 30
        8.70000
 11
        0.10170
 21
        1.17010
 31
        3.35000
 12
        0.38063
 22
        0.24320
 32
        3.35000
 13
        0.38063
 23
        0.24320
 33
        8.70000
999
BLOCK2:OFFICE12:BLOCK2:OFFICE12_WALL_5_0_0
  0
3DFACE
  8
BLOCK2_OFFICE12
 62
 43
 10
        0.38063
 20
        0.24320
 30
        8.70000
 11
        0.38063
 21
        0.24320
 31
        3.35000
 12
        2.82042
 22
       -1.16541
 32
        3.35000
 13
        2.82042
 23
       -1.16541
 33
        8.70000
999
BLOCK2:OFFICE12:BLOCK2:OFFICE12_WALL_5_0_0_0_0_0_WIN
  0
3DFACE
  8
BLOCK2_OFFICE12
 62
143
 10
        2.35231
 20
       -0.89515
 30
        4.96277
 11
        1.63496
 21
       -0.48099
 31
        4.96277
 12
        2.35231
 22
       -0.89515
 32
        4.54277
 13
        2.35231
 23
       -0.89515
 33
        4.54277
999
BLOCK2:OFFICE12:BLOCK2:OFFICE12_WALL_5_0_0_1_0_0_WIN
  0
3DFACE
  8
BLOCK2_OFFICE12
 62
143
 10
        1.63496
 20
       -0.48099
 30
        4.96277
 11
        1.63363
 21
       -0.48022
 31
        4.54277
 12
        2.35231
 22
       -0.89515
 32
        4.54277
 13
        2.35231
 23
       -0.89515
 33
        4.54277
999
BLOCK2:OFFICE12:BLOCK2:OFFICE12_WALL_5_0_0_2_0_1_WIN
  0
3DFACE
  8
BLOCK2_OFFICE12
 62
143
 10
        1.63517
 20
       -0.48111
 30
        6.47277
 11
        1.63509
 21
       -0.48107
 31
        5.04277
 12
        2.35231
 22
       -0.89515
 32
        5.04277
 13
        2.35231
 23
       -0.89515
 33
        6.47277
999
BLOCK2:OFFICE12:BLOCK2:OFFICE12_PARTITION_6_0_0
  0
3DFACE
  8
BLOCK2_OFFICE12
 62
 43
 10
        2.82042
 20
       -1.16541
 30
        8.70000
 11
        2.82042
 21
       -1.16541
 31
        3.35000
 12
        3.85805
 22
        0.63181
 32
        3.35000
 13
        3.85805
 23
        0.63181
 33
        8.70000
999
BLOCK2:OFFICE12:BLOCK2:OFFICE12_PARTITION_7_0_0
  0
3DFACE
  8
BLOCK2_OFFICE12
 62
 43
 10
        3.85805
 20
        0.63181
 30
        8.70000
 11
        3.85805
 21
        0.63181
 31
        3.35000
 12
        4.44757
 22
        0.95631
 32
        3.35000
 13
        4.44757
 23
        0.95631
 33
        8.70000
999
BLOCK2:OFFICE12:BLOCK2:OFFICE12_PARTITION_7_0_0_0_0_0_DOOR
  0
3DFACE
  8
BLOCK2_OFFICE12
 62
 45
 10
        3.85980
 20
        0.63278
 30
        5.64800
 11
        3.85980
 21
        0.63278
 31
        3.45200
 12
        4.32296
 22
        0.88772
 32
        3.45200
 13
        4.32296
 23
        0.88772
 33
        5.64800
999
BLOCK2:OFFICE12:BLOCK2:OFFICE12_WALL_8_0_0
  0
3DFACE
  8
BLOCK2_OFFICE12
 62
 43
 10
        4.44757
 20
        0.95631
 30
        8.70000
 11
        4.44757
 21
        0.95631
 31
        3.35000
 12
        4.19313
 22
        1.21219
 32
        3.35000
 13
        4.19313
 23
        1.21219
 33
        8.70000
999
BLOCK2:OFFICE12:BLOCK2:OFFICE12_WALL_9_0_0
  0
3DFACE
  8
BLOCK2_OFFICE12
 62
 43
 10
        4.19313
 20
        1.21219
 30
        8.70000
 11
        4.19313
 21
        1.21219
 31
        3.35000
 12
        3.80177
 22
        1.81858
 32
        3.35000
 13
        3.80177
 23
        1.81858
 33
        8.70000
999
BLOCK2:OFFICE12:BLOCK2:OFFICE12_FLOOR_0_0_10006
  0
3DFACE
  8
BLOCK2_OFFICE12
 62
  8
 10
        3.85805
 20
        0.63181
 30
        3.35000
 11
        2.82042
 21
       -1.16541
 31
        3.35000
 12
        2.16741
 22
       -0.78840
 32
        3.35000
 13
        2.16741
 23
       -0.78840
 33
        3.35000
  0
3DFACE
  8
BLOCK2_OFFICE12
 62
  8
 10
        3.85805
 20
        0.63181
 30
        3.35000
 11
        2.16741
 21
       -0.78840
 31
        3.35000
 12
        3.01127
 22
        0.62786
 32
        3.35000
 13
        3.01127
 23
        0.62786
 33
        3.35000
  0
3DFACE
  8
BLOCK2_OFFICE12
 62
  8
 10
        3.85805
 20
        0.63181
 30
        3.35000
 11
        3.01127
 21
        0.62786
 31
        3.35000
 12
        2.37178
 22
        0.99707
 32
        3.35000
 13
        2.37178
 23
        0.99707
 33
        3.35000
  0
3DFACE
  8
BLOCK2_OFFICE12
 62
  8
 10
        3.85805
 20
        0.63181
 30
        3.35000
 11
        2.37178
 21
        0.99707
 31
        3.35000
 12
        2.17963
 22
        1.71898
 32
        3.35000
 13
        2.17963
 23
        1.71898
 33
        3.35000
  0
3DFACE
  8
BLOCK2_OFFICE12
 62
  8
 10
        3.85805
 20
        0.63181
 30
        3.35000
 11
        2.17963
 21
        1.71898
 31
        3.35000
 12
        3.68801
 22
        2.11742
 32
        3.35000
 13
        3.68801
 23
        2.11742
 33
        3.35000
  0
3DFACE
  8
BLOCK2_OFFICE12
 62
  8
 10
        4.19343
 20
        1.21151
 30
        3.35000
 11
        4.44731
 21
        0.95617
 31
        3.35000
 12
        3.85805
 22
        0.63181
 32
        3.35000
 13
        3.85805
 23
        0.63181
 33
        3.35000
  0
3DFACE
  8
BLOCK2_OFFICE12
 62
  8
 10
        3.80189
 20
        1.81822
 30
        3.35000
 11
        4.19343
 21
        1.21151
 31
        3.35000
 12
        3.85805
 22
        0.63181
 32
        3.35000
 13
        3.85805
 23
        0.63181
 33
        3.35000
  0
3DFACE
  8
BLOCK2_OFFICE12
 62
  8
 10
        3.85805
 20
        0.63181
 30
        3.35000
 11
        3.68801
 21
        2.11742
 31
        3.35000
 12
        3.80189
 22
        1.81822
 32
        3.35000
 13
        3.80189
 23
        1.81822
 33
        3.35000
999
BLOCK2:OFFICE12:BLOCK2:OFFICE12_FLOOR_0_0_10012
  0
3DFACE
  8
BLOCK2_OFFICE12
 62
  8
 10
        3.01127
 20
        0.62786
 30
        3.35000
 11
        2.16741
 21
       -0.78840
 31
        3.35000
 12
        0.38063
 22
        0.24320
 32
        3.35000
 13
        0.38063
 23
        0.24320
 33
        3.35000
  0
3DFACE
  8
BLOCK2_OFFICE12
 62
  8
 10
        3.01127
 20
        0.62786
 30
        3.35000
 11
        0.38063
 21
        0.24320
 31
        3.35000
 12
        0.10170
 22
        1.17010
 32
        3.35000
 13
        0.10170
 23
        1.17010
 33
        3.35000
  0
3DFACE
  8
BLOCK2_OFFICE12
 62
  8
 10
        0.10170
 20
        1.17010
 30
        3.35000
 11
        2.17963
 21
        1.71898
 31
        3.35000
 12
        2.37178
 22
        0.99707
 32
        3.35000
 13
        2.37178
 23
        0.99707
 33
        3.35000
  0
3DFACE
  8
BLOCK2_OFFICE12
 62
  8
 10
        3.01127
 20
        0.62786
 30
        3.35000
 11
        0.10170
 21
        1.17010
 31
        3.35000
 12
        2.37178
 22
        0.99707
 32
        3.35000
 13
        2.37178
 23
        0.99707
 33
        3.35000
999
BLOCK2:OFFICE12:BLOCK2:OFFICE12_ROOF_1_0_0
  0
3DFACE
  8
BLOCK2_OFFICE12
 62
 15
 10
        0.10170
 20
        1.17010
 30
        8.70000
 11
        0.38063
 21
        0.24320
 31
        8.70000
 12
        2.82042
 22
       -1.16541
 32
        8.70000
 13
        2.82042
 23
       -1.16541
 33
        8.70000
  0
3DFACE
  8
BLOCK2_OFFICE12
 62
 15
 10
        0.10170
 20
        1.17010
 30
        8.70000
 11
        2.82042
 21
       -1.16541
 31
        8.70000
 12
        3.85805
 22
        0.63181
 32
        8.70000
 13
        3.85805
 23
        0.63181
 33
        8.70000
  0
3DFACE
  8
BLOCK2_OFFICE12
 62
 15
 10
        0.10170
 20
        1.17010
 30
        8.70000
 11
        3.85805
 21
        0.63181
 31
        8.70000
 12
        4.44757
 22
        0.95631
 32
        8.70000
 13
        4.44757
 23
        0.95631
 33
        8.70000
  0
3DFACE
  8
BLOCK2_OFFICE12
 62
 15
 10
        3.80177
 20
        1.81858
 30
        8.70000
 11
        3.68802
 21
        2.11743
 31
        8.70000
 12
        0.10170
 22
        1.17010
 32
        8.70000
 13
        0.10170
 23
        1.17010
 33
        8.70000
  0
3DFACE
  8
BLOCK2_OFFICE12
 62
 15
 10
        4.19313
 20
        1.21219
 30
        8.70000
 11
        3.80177
 21
        1.81858
 31
        8.70000
 12
        0.10170
 22
        1.17010
 32
        8.70000
 13
        0.10170
 23
        1.17010
 33
        8.70000
  0
3DFACE
  8
BLOCK2_OFFICE12
 62
 15
 10
        0.10170
 20
        1.17010
 30
        8.70000
 11
        4.44757
 21
        0.95631
 31
        8.70000
 12
        4.19313
 22
        1.21219
 32
        8.70000
 13
        4.19313
 23
        1.21219
 33
        8.70000
999
BLOCK2:ELEVAT%CORRIDOR1:BLOCK2:ELEVAT%CORRIDOR1_PARTITION_2_0_0
  0
3DFACE
  8
BLOCK2_ELEVAT%CORRIDOR1
 62
 43
 10
        9.93679
 20
        1.80981
 30
        8.70000
 11
        9.93679
 21
        1.80981
 31
        3.35000
 12
       10.93159
 22
        2.16263
 32
        3.35000
 13
       10.93159
 23
        2.16263
 33
        8.70000
999
BLOCK2:ELEVAT%CORRIDOR1:BLOCK2:ELEVAT%CORRIDOR1_PARTITION_2_0_0_0_0_0_DOOR
  0
3DFACE
  8
BLOCK2_ELEVAT%CORRIDOR1
 62
 45
 10
       10.08524
 20
        1.86246
 30
        5.64800
 11
       10.08524
 21
        1.86246
 31
        3.45200
 12
       10.92970
 22
        2.16196
 32
        3.45200
 13
       10.92970
 23
        2.16196
 33
        5.64800
999
BLOCK2:ELEVAT%CORRIDOR1:BLOCK2:ELEVAT%CORRIDOR1_PARTITION_3_0_0
  0
3DFACE
  8
BLOCK2_ELEVAT%CORRIDOR1
 62
 43
 10
       10.93159
 20
        2.16263
 30
        8.70000
 11
       10.93159
 21
        2.16263
 31
        3.35000
 12
       12.42577
 22
        1.29996
 32
        3.35000
 13
       12.42577
 23
        1.29996
 33
        8.70000
999
BLOCK2:ELEVAT%CORRIDOR1:BLOCK2:ELEVAT%CORRIDOR1_WALL_4_0_0
  0
3DFACE
  8
BLOCK2_ELEVAT%CORRIDOR1
 62
 43
 10
       12.42577
 20
        1.29996
 30
        8.70000
 11
       12.42577
 21
        1.29996
 31
        3.35000
 12
       13.95316
 22
        3.94548
 32
        3.35000
 13
       13.95316
 23
        3.94548
 33
        8.70000
999
BLOCK2:ELEVAT%CORRIDOR1:BLOCK2:ELEVAT%CORRIDOR1_WALL_5_0_0
  0
3DFACE
  8
BLOCK2_ELEVAT%CORRIDOR1
 62
 43
 10
       13.95316
 20
        3.94548
 30
        8.70000
 11
       13.95316
 21
        3.94548
 31
        3.35000
 12
       13.78427
 22
        4.81110
 32
        3.35000
 13
       13.78427
 23
        4.81110
 33
        8.70000
999
BLOCK2:ELEVAT%CORRIDOR1:BLOCK2:ELEVAT%CORRIDOR1_WALL_6_0_0
  0
3DFACE
  8
BLOCK2_ELEVAT%CORRIDOR1
 62
 43
 10
       13.78427
 20
        4.81110
 30
        8.70000
 11
       13.78427
 21
        4.81110
 31
        3.35000
 12
       10.28234
 22
        3.86569
 32
        3.35000
 13
       10.28234
 23
        3.86569
 33
        8.70000
999
BLOCK2:ELEVAT%CORRIDOR1:BLOCK2:ELEVAT%CORRIDOR1_WALL_6_0_0_0_0_0_HOLE
  0
3DFACE
  8
BLOCK2_ELEVAT%CORRIDOR1
 62
 45
 10
       11.59211
 20
        4.21929
 30
        5.54800
 11
       11.59211
 21
        4.21929
 31
        3.35200
 12
       10.72708
 22
        3.98575
 32
        3.35200
 13
       10.72708
 23
        3.98575
 33
        5.54800
999
BLOCK2:ELEVAT%CORRIDOR1:BLOCK2:ELEVAT%CORRIDOR1_WALL_7_0_0
  0
3DFACE
  8
BLOCK2_ELEVAT%CORRIDOR1
 62
 43
 10
       10.28234
 20
        3.86569
 30
        8.70000
 11
       10.28234
 21
        3.86569
 31
        3.35000
 12
       10.33003
 22
        3.54691
 32
        3.35000
 13
       10.33003
 23
        3.54691
 33
        8.70000
999
BLOCK2:ELEVAT%CORRIDOR1:BLOCK2:ELEVAT%CORRIDOR1_WALL_8_0_0
  0
3DFACE
  8
BLOCK2_ELEVAT%CORRIDOR1
 62
 43
 10
       10.33003
 20
        3.54691
 30
        8.70000
 11
       10.33003
 21
        3.54691
 31
        3.35000
 12
       10.29029
 22
        2.82746
 32
        3.35000
 13
       10.29029
 23
        2.82746
 33
        8.70000
999
BLOCK2:ELEVAT%CORRIDOR1:BLOCK2:ELEVAT%CORRIDOR1_WALL_9_0_0
  0
3DFACE
  8
BLOCK2_ELEVAT%CORRIDOR1
 62
 43
 10
       10.29029
 20
        2.82746
 30
        8.70000
 11
       10.29029
 21
        2.82746
 31
        3.35000
 12
       10.10153
 22
        2.13087
 32
        3.35000
 13
       10.10153
 23
        2.13087
 33
        8.70000
999
BLOCK2:ELEVAT%CORRIDOR1:BLOCK2:ELEVAT%CORRIDOR1_WALL_10_0_0
  0
3DFACE
  8
BLOCK2_ELEVAT%CORRIDOR1
 62
 43
 10
       10.10153
 20
        2.13087
 30
        8.70000
 11
       10.10153
 21
        2.13087
 31
        3.35000
 12
        9.93679
 22
        1.80981
 32
        3.35000
 13
        9.93679
 23
        1.80981
 33
        8.70000
999
BLOCK2:ELEVAT%CORRIDOR1:BLOCK2:ELEVAT%CORRIDOR1_FLOOR_0_0_10013
  0
3DFACE
  8
BLOCK2_ELEVAT%CORRIDOR1
 62
  8
 10
       13.95316
 20
        3.94548
 30
        3.35000
 11
       12.42577
 21
        1.29996
 31
        3.35000
 12
       10.93159
 22
        2.16263
 32
        3.35000
 13
       10.93159
 23
        2.16263
 33
        3.35000
  0
3DFACE
  8
BLOCK2_ELEVAT%CORRIDOR1
 62
  8
 10
       13.95316
 20
        3.94548
 30
        3.35000
 11
       10.93159
 21
        2.16263
 31
        3.35000
 12
        9.94125
 22
        1.81139
 32
        3.35000
 13
        9.94125
 23
        1.81139
 33
        3.35000
  0
3DFACE
  8
BLOCK2_ELEVAT%CORRIDOR1
 62
  8
 10
       13.95316
 20
        3.94548
 30
        3.35000
 11
        9.94125
 21
        1.81139
 31
        3.35000
 12
       10.10499
 22
        2.13050
 32
        3.35000
 13
       10.10499
 23
        2.13050
 33
        3.35000
  0
3DFACE
  8
BLOCK2_ELEVAT%CORRIDOR1
 62
  8
 10
       13.95316
 20
        3.94548
 30
        3.35000
 11
       10.10499
 21
        2.13050
 31
        3.35000
 12
       10.29388
 22
        2.82745
 32
        3.35000
 13
       10.29388
 23
        2.82745
 33
        3.35000
  0
3DFACE
  8
BLOCK2_ELEVAT%CORRIDOR1
 62
  8
 10
       13.95316
 20
        3.94548
 30
        3.35000
 11
       10.29388
 21
        2.82745
 31
        3.35000
 12
       10.33373
 22
        3.54844
 32
        3.35000
 13
       10.33373
 23
        3.54844
 33
        3.35000
  0
3DFACE
  8
BLOCK2_ELEVAT%CORRIDOR1
 62
  8
 10
       13.95316
 20
        3.94548
 30
        3.35000
 11
       10.33373
 21
        3.54844
 31
        3.35000
 12
       10.28433
 22
        3.86622
 32
        3.35000
 13
       10.28433
 23
        3.86622
 33
        3.35000
  0
3DFACE
  8
BLOCK2_ELEVAT%CORRIDOR1
 62
  8
 10
       13.95316
 20
        3.94548
 30
        3.35000
 11
       10.28433
 21
        3.86622
 31
        3.35000
 12
       13.78427
 22
        4.81110
 32
        3.35000
 13
       13.78427
 23
        4.81110
 33
        3.35000
999
BLOCK2:ELEVAT%CORRIDOR1:BLOCK2:ELEVAT%CORRIDOR1_ROOF_1_0_0
  0
3DFACE
  8
BLOCK2_ELEVAT%CORRIDOR1
 62
 15
 10
       10.10153
 20
        2.13087
 30
        8.70000
 11
        9.93679
 21
        1.80981
 31
        8.70000
 12
       10.93159
 22
        2.16263
 32
        8.70000
 13
       10.93159
 23
        2.16263
 33
        8.70000
  0
3DFACE
  8
BLOCK2_ELEVAT%CORRIDOR1
 62
 15
 10
       10.93159
 20
        2.16263
 30
        8.70000
 11
       12.42577
 21
        1.29996
 31
        8.70000
 12
       13.95316
 22
        3.94548
 32
        8.70000
 13
       13.95316
 23
        3.94548
 33
        8.70000
  0
3DFACE
  8
BLOCK2_ELEVAT%CORRIDOR1
 62
 15
 10
       10.10153
 20
        2.13087
 30
        8.70000
 11
       10.93159
 21
        2.16263
 31
        8.70000
 12
       13.95316
 22
        3.94548
 32
        8.70000
 13
       13.95316
 23
        3.94548
 33
        8.70000
  0
3DFACE
  8
BLOCK2_ELEVAT%CORRIDOR1
 62
 15
 10
       10.10153
 20
        2.13087
 30
        8.70000
 11
       13.95316
 21
        3.94548
 31
        8.70000
 12
       13.78427
 22
        4.81110
 32
        8.70000
 13
       13.78427
 23
[...]
 21
        9.16762
 31
        8.25000
 12
       15.56240
 22
        8.71885
 32
        8.25000
 13
       15.56240
 23
        8.71885
 33
        8.25000
  0
3DFACE
  8
FIRSTFLOOR_OFFICE8
 62
 15
 10
       18.35123
 20
        7.32004
 30
        8.25000
 11
       15.56240
 21
        8.71885
 31
        8.25000
 12
       15.90314
 22
        8.23544
 32
        8.25000
 13
       15.90314
 23
        8.23544
 33
        8.25000
  0
3DFACE
  8
FIRSTFLOOR_OFFICE8
 62
 15
 10
       16.01453
 20
        7.61143
 30
        8.25000
 11
       18.35123
 21
        7.32004
 31
        8.25000
 12
       15.90314
 22
        8.23544
 32
        8.25000
 13
       15.90314
 23
        8.23544
 33
        8.25000
999
FIRSTFLOOR:CORRIDOR%B1:FIRSTFLOOR:CORRIDOR%B1_PARTITION_5_0_10034
  0
3DFACE
  8
FIRSTFLOOR_CORRIDOR%B1
 62
 43
 10
       14.24769
 20
        7.76412
 30
        8.25000
 11
       14.24769
 21
        7.76412
 31
        3.35000
 12
       13.19123
 22
        5.93429
 32
        3.35000
 13
       13.19123
 23
        5.93429
 33
        8.25000
999
FIRSTFLOOR:CORRIDOR%B1:FIRSTFLOOR:CORRIDOR%B1_PARTITION_5_0_0_0_0_0_DOOR_10036
  0
3DFACE
  8
FIRSTFLOOR_CORRIDOR%B1
 62
 45
 10
       14.04767
 20
        7.41768
 30
        5.65000
 11
       14.04767
 21
        7.41768
 31
        3.45000
 12
       13.59767
 22
        6.63826
 32
        3.45000
 13
       13.59767
 23
        6.63826
 33
        5.65000
999
FIRSTFLOOR:CORRIDOR%B1:FIRSTFLOOR:CORRIDOR%B1_PARTITION_3_0_10048
  0
3DFACE
  8
FIRSTFLOOR_CORRIDOR%B1
 62
 43
 10
       16.07545
 20
        6.70886
 30
        8.25000
 11
       16.07545
 21
        6.70886
 31
        3.35000
 12
       15.70649
 22
        6.92188
 32
        3.35000
 13
       15.70649
 23
        6.92188
 33
        8.25000
999
FIRSTFLOOR:CORRIDOR%B1:FIRSTFLOOR:CORRIDOR%B1_WALL_2_0_0
  0
3DFACE
  8
FIRSTFLOOR_CORRIDOR%B1
 62
 43
 10
       13.19123
 20
        5.93429
 30
        8.25000
 11
       13.19123
 21
        5.93429
 31
        3.35000
 12
       16.07545
 22
        6.70886
 32
        3.35000
 13
       16.07545
 23
        6.70886
 33
        8.25000
999
FIRSTFLOOR:CORRIDOR%B1:FIRSTFLOOR:CORRIDOR%B1_PARTITION_4_0_0
  0
3DFACE
  8
FIRSTFLOOR_CORRIDOR%B1
 62
 43
 10
       15.70649
 20
        6.92188
 30
        8.25000
 11
       15.70649
 21
        6.92188
 31
        3.35000
 12
       14.24769
 22
        7.76412
 32
        3.35000
 13
       14.24769
 23
        7.76412
 33
        8.25000
999
FIRSTFLOOR:CORRIDOR%B1:FIRSTFLOOR:CORRIDOR%B1_PARTITION_4_0_0_0_0_0_DOOR
  0
3DFACE
  8
FIRSTFLOOR_CORRIDOR%B1
 62
 45
 10
       15.53423
 20
        7.02133
 30
        5.65000
 11
       15.53423
 21
        7.02133
 31
        3.45000
 12
       14.75481
 22
        7.47133
 32
        3.45000
 13
       14.75481
 23
        7.47133
 33
        5.65000
999
FIRSTFLOOR:CORRIDOR%B1:FIRSTFLOOR:CORRIDOR%B1_FLOOR_0_0_10002
  0
3DFACE
  8
FIRSTFLOOR_CORRIDOR%B1
 62
  8
 10
       14.31753
 20
        7.72380
 30
        3.35000
 11
       13.30144
 21
        5.96389
 31
        3.35000
 12
       13.19123
 22
        5.93429
 32
        3.35000
 13
       14.24769
 23
        7.76412
 33
        3.35000
999
FIRSTFLOOR:CORRIDOR%B1:FIRSTFLOOR:CORRIDOR%B1_FLOOR_0_0_10022
  0
3DFACE
  8
FIRSTFLOOR_CORRIDOR%B1
 62
  8
 10
       14.26753
 20
        7.63720
 30
        3.35000
 11
       15.93894
 21
        6.67220
 31
        3.35000
 12
       13.30144
 22
        5.96389
 32
        3.35000
 13
       13.30144
 23
        5.96389
 33
        3.35000
999
FIRSTFLOOR:CORRIDOR%B1:FIRSTFLOOR:CORRIDOR%B1_FLOOR_0_0_10027
  0
3DFACE
  8
FIRSTFLOOR_CORRIDOR%B1
 62
  8
 10
       15.70649
 20
        6.92188
 30
        3.35000
 11
       15.65649
 21
        6.83528
 31
        3.35000
 12
       14.26753
 22
        7.63720
 32
        3.35000
 13
       14.31753
 23
        7.72380
 33
        3.35000
999
FIRSTFLOOR:CORRIDOR%B1:FIRSTFLOOR:CORRIDOR%B1_ROOF_1_0_0
  0
3DFACE
  8
FIRSTFLOOR_CORRIDOR%B1
 62
 15
 10
       14.24769
 20
        7.76412
 30
        8.25000
 11
       13.19123
 21
        5.93429
 31
        8.25000
 12
       16.07545
 22
        6.70886
 32
        8.25000
 13
       16.07545
 23
        6.70886
 33
        8.25000
999
FIRSTFLOOR:CORRIDOR%B2:FIRSTFLOOR:CORRIDOR%B2_PARTITION_10_0_10036
  0
3DFACE
  8
FIRSTFLOOR_CORRIDOR%B2
 62
 43
 10
       14.40088
 20
        8.02947
 30
        8.25000
 11
       14.40088
 21
        8.02947
 31
        3.35000
 12
       14.24769
 22
        7.76412
 32
        3.35000
 13
       14.24769
 23
        7.76412
 33
        8.25000
999
FIRSTFLOOR:CORRIDOR%B2:FIRSTFLOOR:CORRIDOR%B2_PARTITION_9_0_10037
  0
3DFACE
  8
FIRSTFLOOR_CORRIDOR%B2
 62
 43
 10
       13.41500
 20
        8.59867
 30
        8.25000
 11
       13.41500
 21
        8.59867
 31
        3.35000
 12
       14.40088
 22
        8.02947
 32
        3.35000
 13
       14.40088
 23
        8.02947
 33
        8.25000
999
FIRSTFLOOR:CORRIDOR%B2:FIRSTFLOOR:CORRIDOR%B2_PARTITION_7_0_10042
  0
3DFACE
  8
FIRSTFLOOR_CORRIDOR%B2
 62
 43
 10
       15.15112
 20
        9.16762
 30
        8.25000
 11
       15.15112
 21
        9.16762
 31
        3.35000
 12
       14.09539
 22
        9.77714
 32
        3.35000
 13
       14.09539
 23
        9.77714
 33
        8.25000
999
FIRSTFLOOR:CORRIDOR%B2:FIRSTFLOOR:CORRIDOR%B2_PARTITION_7_0_0_0_0_0_DOOR_10044
  0
3DFACE
  8
FIRSTFLOOR_CORRIDOR%B2
 62
 45
 10
       14.96216
 20
        9.27672
 30
        5.65000
 11
       14.96216
 21
        9.27672
 31
        3.45000
 12
       14.18273
 22
        9.72672
 32
        3.45000
 13
       14.18273
 23
        9.72672
 33
        5.65000
999
FIRSTFLOOR:CORRIDOR%B2:FIRSTFLOOR:CORRIDOR%B2_PARTITION_6_0_10044
  0
3DFACE
  8
FIRSTFLOOR_CORRIDOR%B2
 62
 43
 10
       15.56240
 20
        8.71885
 30
        8.25000
 11
       15.56240
 21
        8.71885
 31
        3.35000
 12
       15.15112
 22
        9.16762
 32
        3.35000
 13
       15.15112
 23
        9.16762
 33
        8.25000
999
FIRSTFLOOR:CORRIDOR%B2:FIRSTFLOOR:CORRIDOR%B2_PARTITION_5_0_10045
  0
3DFACE
  8
FIRSTFLOOR_CORRIDOR%B2
 62
 43
 10
       15.90314
 20
        8.23544
 30
        8.25000
 11
       15.90314
 21
        8.23544
 31
        3.35000
 12
       15.56240
 22
        8.71885
 32
        3.35000
 13
       15.56240
 23
        8.71885
 33
        8.25000
999
FIRSTFLOOR:CORRIDOR%B2:FIRSTFLOOR:CORRIDOR%B2_PARTITION_4_0_10046
  0
3DFACE
  8
FIRSTFLOOR_CORRIDOR%B2
 62
 43
 10
       16.01453
 20
        7.61143
 30
        8.25000
 11
       16.01453
 21
        7.61143
 31
        3.35000
 12
       15.90314
 22
        8.23544
 32
        3.35000
 13
       15.90314
 23
        8.23544
 33
        8.25000
999
FIRSTFLOOR:CORRIDOR%B2:FIRSTFLOOR:CORRIDOR%B2_PARTITION_3_0_10047
  0
3DFACE
  8
FIRSTFLOOR_CORRIDOR%B2
 62
 43
 10
       15.70649
 20
        6.92188
 30
        8.25000
 11
       15.70649
 21
        6.92188
 31
        3.35000
 12
       16.01453
 22
        7.61143
 32
        3.35000
 13
       16.01453
 23
        7.61143
 33
        8.25000
999
FIRSTFLOOR:CORRIDOR%B2:FIRSTFLOOR:CORRIDOR%B2_PARTITION_2_0_10049
  0
3DFACE
  8
FIRSTFLOOR_CORRIDOR%B2
 62
 43
 10
       14.24769
 20
        7.76412
 30
        8.25000
 11
       14.24769
 21
        7.76412
 31
        3.35000
 12
       15.70649
 22
        6.92188
 32
        3.35000
 13
       15.70649
 23
        6.92188
 33
        8.25000
999
FIRSTFLOOR:CORRIDOR%B2:FIRSTFLOOR:CORRIDOR%B2_PARTITION_2_0_0_0_0_0_DOOR_10051
  0
3DFACE
  8
FIRSTFLOOR_CORRIDOR%B2
 62
 45
 10
       14.75481
 20
        7.47133
 30
        5.65000
 11
       14.75481
 21
        7.47133
 31
        3.45000
 12
       15.53423
 22
        7.02133
 32
        3.45000
 13
       15.53423
 23
        7.02133
 33
        5.65000
999
FIRSTFLOOR:CORRIDOR%B2:FIRSTFLOOR:CORRIDOR%B2_PARTITION_8_0_0
  0
3DFACE
  8
FIRSTFLOOR_CORRIDOR%B2
 62
 43
 10
       14.09539
 20
        9.77714
 30
        8.25000
 11
       14.09539
 21
        9.77714
 31
        3.35000
 12
       13.41500
 22
        8.59867
 32
        3.35000
 13
       13.41500
 23
        8.59867
 33
        8.25000
999
FIRSTFLOOR:CORRIDOR%B2:FIRSTFLOOR:CORRIDOR%B2_PARTITION_8_0_0_0_0_0_DOOR
  0
3DFACE
  8
FIRSTFLOOR_CORRIDOR%B2
 62
 45
 10
       13.99471
 20
        9.60276
 30
        5.65000
 11
       13.99471
 21
        9.60276
 31
        3.45000
 12
       13.54471
 22
        8.82334
 32
        3.45000
 13
       13.54471
 23
        8.82334
 33
        5.65000
999
FIRSTFLOOR:CORRIDOR%B2:FIRSTFLOOR:CORRIDOR%B2_FLOOR_0_0_10028
  0
3DFACE
  8
FIRSTFLOOR_CORRIDOR%B2
 62
  8
 10
       16.01453
 20
        7.61143
 30
        3.35000
 11
       15.70649
 21
        6.92188
 31
        3.35000
 12
       14.31753
 22
        7.72380
 32
        3.35000
 13
       14.31753
 23
        7.72380
 33
        3.35000
  0
3DFACE
  8
FIRSTFLOOR_CORRIDOR%B2
 62
  8
 10
       16.01453
 20
        7.61143
 30
        3.35000
 11
       14.31753
 21
        7.72380
 31
        3.35000
 12
       14.43003
 22
        7.91865
 32
        3.35000
 13
       14.43003
 23
        7.91865
 33
        3.35000
  0
3DFACE
  8
FIRSTFLOOR_CORRIDOR%B2
 62
  8
 10
       16.01453
 20
        7.61143
 30
        3.35000
 11
       14.43003
 21
        7.91865
 31
        3.35000
 12
       14.36019
 22
        7.95898
 32
        3.35000
 13
       14.36019
 23
        7.95898
 33
        3.35000
  0
3DFACE
  8
FIRSTFLOOR_CORRIDOR%B2
 62
  8
 10
       16.01453
 20
        7.61143
 30
        3.35000
 11
       14.36019
 21
        7.95898
 31
        3.35000
 12
       14.40088
 22
        8.02947
 32
        3.35000
 13
       14.40088
 23
        8.02947
 33
        3.35000
  0
3DFACE
  8
FIRSTFLOOR_CORRIDOR%B2
 62
  8
 10
       16.01453
 20
        7.61143
 30
        3.35000
 11
       14.40088
 21
        8.02947
 31
        3.35000
 12
       13.41500
 22
        8.59867
 32
        3.35000
 13
       13.41500
 23
        8.59867
 33
        3.35000
  0
3DFACE
  8
FIRSTFLOOR_CORRIDOR%B2
 62
  8
 10
       16.01453
 20
        7.61143
 30
        3.35000
 11
       13.41500
 21
        8.59867
 31
        3.35000
 12
       14.09539
 22
        9.77714
 32
        3.35000
 13
       14.09539
 23
        9.77714
 33
        3.35000
  0
3DFACE
  8
FIRSTFLOOR_CORRIDOR%B2
 62
  8
 10
       16.01453
 20
        7.61143
 30
        3.35000
 11
       14.09539
 21
        9.77714
 31
        3.35000
 12
       15.15112
 22
        9.16762
 32
        3.35000
 13
       15.15112
 23
        9.16762
 33
        3.35000
  0
3DFACE
  8
FIRSTFLOOR_CORRIDOR%B2
 62
  8
 10
       15.15112
 20
        9.16762
 30
        3.35000
 11
       15.56240
 21
        8.71885
 31
        3.35000
 12
       15.90314
 22
        8.23544
 32
        3.35000
 13
       15.90314
 23
        8.23544
 33
        3.35000
  0
3DFACE
  8
FIRSTFLOOR_CORRIDOR%B2
 62
  8
 10
       16.01453
 20
        7.61143
 30
        3.35000
 11
       15.15112
 21
        9.16762
 31
        3.35000
 12
       15.90314
 22
        8.23544
 32
        3.35000
 13
       15.90314
 23
        8.23544
 33
        3.35000
999
FIRSTFLOOR:CORRIDOR%B2:FIRSTFLOOR:CORRIDOR%B2_ROOF_1_0_0
  0
3DFACE
  8
FIRSTFLOOR_CORRIDOR%B2
 62
 15
 10
       14.40088
 20
        8.02947
 30
        8.25000
 11
       14.24769
 21
        7.76412
 31
        8.25000
 12
       15.70649
 22
        6.92188
 32
        8.25000
 13
       15.70649
 23
        6.92188
 33
        8.25000
  0
3DFACE
  8
FIRSTFLOOR_CORRIDOR%B2
 62
 15
 10
       14.40088
 20
        8.02947
 30
        8.25000
 11
       15.70649
 21
        6.92188
 31
        8.25000
 12
       16.01453
 22
        7.61143
 32
        8.25000
 13
       16.01453
 23
        7.61143
 33
        8.25000
  0
3DFACE
  8
FIRSTFLOOR_CORRIDOR%B2
 62
 15
 10
       16.01453
 20
        7.61143
 30
        8.25000
 11
       15.90314
 21
        8.23544
 31
        8.25000
 12
       15.56240
 22
        8.71885
 32
        8.25000
 13
       15.56240
 23
        8.71885
 33
        8.25000
  0
3DFACE
  8
FIRSTFLOOR_CORRIDOR%B2
 62
 15
 10
       16.01453
 20
        7.61143
 30
        8.25000
 11
       15.56240
 21
        8.71885
 31
        8.25000
 12
       15.15112
 22
        9.16762
 32
        8.25000
 13
       15.15112
 23
        9.16762
 33
        8.25000
  0
3DFACE
  8
FIRSTFLOOR_CORRIDOR%B2
 62
 15
 10
       16.01453
 20
        7.61143
 30
        8.25000
 11
       15.15112
 21
        9.16762
 31
        8.25000
 12
       14.09539
 22
        9.77714
 32
        8.25000
 13
       14.09539
 23
        9.77714
 33
        8.25000
  0
3DFACE
  8
FIRSTFLOOR_CORRIDOR%B2
 62
 15
 10
       16.01453
 20
        7.61143
 30
        8.25000
 11
       14.09539
 21
        9.77714
 31
        8.25000
 12
       13.41500
 22
        8.59867
 32
        8.25000
 13
       13.41500
 23
        8.59867
 33
        8.25000
  0
3DFACE
  8
FIRSTFLOOR_CORRIDOR%B2
 62
 15
 10
       14.40088
 20
        8.02947
 30
        8.25000
 11
       16.01453
 21
        7.61143
 31
        8.25000
 12
       13.41500
 22
        8.59867
 32
        8.25000
 13
       13.41500
 23
        8.59867
 33
        8.25000
999
FIRSTFLOOR:OFFICE9:FIRSTFLOOR:OFFICE9_PARTITION_2_0_10038
  0
3DFACE
  8
FIRSTFLOOR_OFFICE9
 62
 43
 10
       12.67459
 20
        9.02615
 30
        8.25000
 11
       12.67459
 21
        9.02615
 31
        3.35000
 12
       13.41500
 22
        8.59867
 32
        3.35000
 13
       13.41500
 23
        8.59867
 33
        8.25000
999
FIRSTFLOOR:OFFICE9:FIRSTFLOOR:OFFICE9_PARTITION_9_0_10039
  0
3DFACE
  8
FIRSTFLOOR_OFFICE9
 62
 43
 10
       12.47139
 20
        8.67420
 30
        8.25000
 11
       12.47139
 21
        8.67420
 31
        3.35000
 12
       12.67459
 22
        9.02615
 32
        3.35000
 13
       12.67459
 23
        9.02615
 33
        8.25000
999
FIRSTFLOOR:OFFICE9:FIRSTFLOOR:OFFICE9_PARTITION_8_0_10040
  0
3DFACE
  8
FIRSTFLOOR_OFFICE9
 62
 43
 10
       10.49827
 20
        9.81338
 30
        8.25000
 11
       10.49827
 21
        9.81338
 31
        3.35000
 12
       12.47139
 22
        8.67420
 32
        3.35000
 13
       12.47139
 23
        8.67420
 33
        8.25000
999
FIRSTFLOOR:OFFICE9:FIRSTFLOOR:OFFICE9_PARTITION_4_0_10041
  0
3DFACE
  8
FIRSTFLOOR_OFFICE9
 62
 43
 10
       14.09539
 20
        9.77714
 30
        8.25000
 11
       14.09539
 21
        9.77714
 31
        3.35000
 12
       15.45752
 22
       12.13642
 32
        3.35000
 13
       15.45752
 23
       12.13642
 33
        8.25000
999
FIRSTFLOOR:OFFICE9:FIRSTFLOOR:OFFICE9_PARTITION_3_0_10051
  0
3DFACE
  8
FIRSTFLOOR_OFFICE9
 62
 43
 10
       13.41500
 20
        8.59867
 30
        8.25000
 11
       13.41500
 21
        8.59867
 31
        3.35000
 12
       14.09539
 22
        9.77714
 32
        3.35000
 13
       14.09539
 23
        9.77714
 33
        8.25000
999
FIRSTFLOOR:OFFICE9:FIRSTFLOOR:OFFICE9_PARTITION_3_0_0_0_0_0_DOOR_10053
  0
3DFACE
  8
FIRSTFLOOR_OFFICE9
 62
 45
 10
       13.54471
 20
        8.82334
 30
        5.65000
 11
       13.54471
 21
        8.82334
 31
        3.45000
 12
       13.99471
 22
        9.60276
 32
        3.45000
 13
       13.99471
 23
        9.60276
 33
        5.65000
999
FIRSTFLOOR:OFFICE9:FIRSTFLOOR:OFFICE9_WALL_5_0_0
  0
3DFACE
  8
FIRSTFLOOR_OFFICE9
 62
 43
 10
       15.45752
 20
       12.13642
 30
        8.25000
 11
       15.45752
 21
       12.13642
 31
        3.35000
 12
       14.20807
 22
       12.85780
 32
        3.35000
 13
       14.20807
 23
       12.85780
 33
        8.25000
999
FIRSTFLOOR:OFFICE9:FIRSTFLOOR:OFFICE9_WALL_6_0_0
  0
3DFACE
  8
FIRSTFLOOR_OFFICE9
 62
 43
 10
       14.20807
 20
       12.85780
 30
        8.25000
 11
       14.20807
 21
       12.85780
 31
        3.35000
 12
       11.89870
 22
       12.23900
 32
        3.35000
 13
       11.89870
 23
       12.23900
 33
        8.25000
999
FIRSTFLOOR:OFFICE9:FIRSTFLOOR:OFFICE9_WALL_6_0_0_0_0_0_WIN
  0
3DFACE
  8
FIRSTFLOOR_OFFICE9
 62
143
 10
       12.87118
 20
       12.49958
 30
        6.26405
 11
       12.87118
 21
       12.49958
 31
        4.83405
 12
       12.07912
 22
       12.28734
 32
        4.83405
 13
       12.07912
 23
       12.28734
 33
        6.26405
999
FIRSTFLOOR:OFFICE9:FIRSTFLOOR:OFFICE9_WALL_6_0_0_1_0_1_WIN
  0
3DFACE
  8
FIRSTFLOOR_OFFICE9
 62
143
 10
       13.95302
 20
       12.78945
 30
        6.26405
 11
       13.95302
 21
       12.78945
 31
        4.83405
 12
       13.16096
 22
       12.57722
 32
        4.83405
 13
       13.16096
 23
       12.57722
 33
        6.26405
999
FIRSTFLOOR:OFFICE9:FIRSTFLOOR:OFFICE9_WALL_7_0_0
  0
3DFACE
  8
FIRSTFLOOR_OFFICE9
 62
 43
 10
       11.89870
 20
       12.23900
 30
        8.25000
 11
       11.89870
 21
       12.23900
 31
        3.35000
 12
       10.49827
 22
        9.81338
 32
        3.35000
 13
       10.49827
 23
        9.81338
 33
        8.25000
999
FIRSTFLOOR:OFFICE9:FIRSTFLOOR:OFFICE9_FLOOR_0_0_10033
  0
3DFACE
  8
FIRSTFLOOR_OFFICE9
 62
  8
 10
       15.45752
 20
       12.13642
 30
        3.35000
 11
       13.41500
 21
        8.59867
 31
        3.35000
 12
       12.67459
 22
        9.02615
 32
        3.35000
 13
       12.67459
 23
        9.02615
 33
        3.35000
  0
3DFACE
  8
FIRSTFLOOR_OFFICE9
 62
  8
 10
       12.67459
 20
        9.02615
 30
        3.35000
 11
       12.47139
 21
        8.67420
 31
        3.35000
 12
       10.49827
 22
        9.81338
 32
        3.35000
 13
       10.49827
 23
        9.81338
 33
        3.35000
  0
3DFACE
  8
FIRSTFLOOR_OFFICE9
 62
  8
 10
       15.45752
 20
       12.13642
 30
        3.35000
 11
       12.67459
 21
        9.02615
 31
        3.35000
 12
       10.49827
 22
        9.81338
 32
        3.35000
 13
       10.49827
 23
        9.81338
 33
        3.35000
  0
3DFACE
  8
FIRSTFLOOR_OFFICE9
 62
  8
 10
       10.49827
 20
        9.81338
 30
        3.35000
 11
       11.89870
 21
       12.23900
 31
        3.35000
 12
       14.20807
 22
       12.85780
 32
        3.35000
 13
       14.20807
 23
       12.85780
 33
        3.35000
  0
3DFACE
  8
FIRSTFLOOR_OFFICE9
 62
  8
 10
       15.45752
 20
       12.13642
 30
        3.35000
 11
       10.49827
 21
        9.81338
 31
        3.35000
 12
       14.20807
 22
       12.85780
 32
        3.35000
 13
       14.20807
 23
       12.85780
 33
        3.35000
999
FIRSTFLOOR:OFFICE9:FIRSTFLOOR:OFFICE9_ROOF_1_0_0
  0
3DFACE
  8
FIRSTFLOOR_OFFICE9
 62
 15
 10
       11.89870
 20
       12.23900
 30
        8.25000
 11
       10.49827
 21
        9.81338
 31
        8.25000
 12
       12.47139
 22
        8.67420
 32
        8.25000
 13
       12.47139
 23
        8.67420
 33
        8.25000
  0
3DFACE
  8
FIRSTFLOOR_OFFICE9
 62
 15
 10
       11.89870
 20
       12.23900
 30
        8.25000
 11
       12.47139
 21
        8.67420
 31
        8.25000
 12
       12.67459
 22
        9.02615
 32
        8.25000
 13
       12.67459
 23
        9.02615
 33
        8.25000
  0
3DFACE
  8
FIRSTFLOOR_OFFICE9
 62
 15
 10
       11.89870
 20
       12.23900
 30
        8.25000
 11
       12.67459
 21
        9.02615
 31
        8.25000
 12
       13.41500
 22
        8.59867
 32
        8.25000
 13
       13.41500
 23
        8.59867
 33
        8.25000
  0
3DFACE
  8
FIRSTFLOOR_OFFICE9
 62
 15
 10
       11.89870
 20
       12.23900
 30
        8.25000
 11
       13.41500
 21
        8.59867
 31
        8.25000
 12
       15.45752
 22
       12.13642
 32
        8.25000
 13
       15.45752
 23
       12.13642
 33
        8.25000
  0
3DFACE
  8
FIRSTFLOOR_OFFICE9
 62
 15
 10
       11.89870
 20
       12.23900
 30
        8.25000
 11
       15.45752
 21
       12.13642
 31
        8.25000
 12
       14.20807
 22
       12.85780
 32
        8.25000
 13
       14.20807
 23
       12.85780
 33
        8.25000
  0
ENDSEC
  0
EOF
